108
Lattice="14.108451137077413 0.0 0.0 0.0 14.487369261277543 0.0 0.0 0.0 14.816192640859066" Properties=species:S:1:pos:R:3 id=sample_001831 pbc="F F F"
Al      -0.00802891      -0.00517326       0.00135914
Al       0.00875449       2.39622714       2.47165468
Al       2.35664866      -0.01823627       2.44758521
Al       2.35118768       2.42663025       0.00995722
Al       0.02071702       0.00168480       4.95011400
Al       0.02162500       2.42085491       7.40424340
Al       2.33951076      -0.00144257       7.42261825
Al       2.33046921       2.43431096       4.92611285
Al      -0.01372357       0.01875148       9.89937628
Al      -0.03151873       2.39556727      12.35034800
Al       2.31591361       0.00452548      12.35787138
Al       2.35601460       2.39566063       9.88357836
Al       0.01359526       4.81601785      -0.01117063
Al      -0.01342756       7.22641604       2.47690043
Al       2.34193308       4.84200172       2.46860061
Al       2.32120678       7.24988200       0.00666584
Al      -0.03917310       4.81488114       4.91395343
Al      -0.00925895       7.25017869       7.40240445
Al       2.35206919       4.83414986       7.40118724
Al       2.33059504       7.22195151       4.95504794
Al       0.01172034       4.81915822       9.87546751
Al       0.00038096       7.25414897      12.33326287
Al       2.36986021       4.82476534      12.36626151
Al       2.32339785       7.24249403       9.87754901
Al      -0.01049116       9.66169178       0.00147978
Al       0.00935039      12.05936612       2.48721156
Al       2.34828732       9.66838344       2.48834058
Al       2.31889595      12.08086900       0.01434419
Al       0.01844141       9.63419926       4.92644277
Al       0.01022783      12.09012568       7.39564717
Al       2.35064961       9.64654148       7.42482047
Al       2.36305002      12.08815079       4.92968637
Al       0.00249938       9.64679120       9.88692838
Al       0.00416018      12.06250086      12.34612517
Al       2.32760564       9.67883049      12.34973740
Al       2.35459734      12.07622456       9.87869332
Al       4.70802059       0.00777406      -0.01284086
Al       4.69882682       2.43314013       2.48624487
Al       7.06217556       0.01155029       2.44067494
Al       7.06459604       2.41955184       0.00928793
Al       4.69791351      -0.02728277       4.94459629
Al       4.71313659       2.41328047       7.41038217
Al       7.05582843      -0.00937755       7.40139358
Al       7.05011975       2.40595826       4.94224065
Al       4.67801003      -0.00932254       9.86511146
Al       4.69732492       2.41221587      12.36573813
Al       7.06498128      -0.00027394      12.33805027
Al       7.05586176       2.39229700       9.88249106
Al       4.72449090       4.83072009       0.02267247
Al       4.70943995       7.21578403       2.47865503
Al       7.06503103       4.81857147       2.45663763
Al       7.08493935       7.24961827       0.00263373
Al       4.70015409       4.83717616       4.95039147
Al       4.69820980       7.26164713       7.38932682
Al       7.01823225       4.85289225       7.41038204
Al       7.07750489       7.26946919       4.94382233
Al       4.70773004       4.84505333       9.87689457
Al       4.69868843       7.22668666      12.33548581
Al       7.05731465       4.82453242      12.33615545
Al       7.03664634       7.24695972       9.86031821
Al       4.71982452       9.66104971       0.03008804
Al       4.70792470      12.07255411       2.47596374
Al       7.06204830       9.64987692       2.50328495
Al       7.06493422      12.06535405      -0.01754366
Al       4.69972535       9.62370809       4.92251624
Al       4.72007723      12.07254220       7.42552255
Al       7.04135642       9.65580606       7.40099357
Al       7.03239716      12.08304283       4.93708156
Al       4.71634188       9.65786512       9.86160947
Al       4.72362531      12.05757354      12.35320241
Al       7.04832088       9.65310269      12.34950889
Al       7.04128560      12.06384275       9.88008725
Al       9.39874839      -0.02089237      -0.01298572
Al       9.40469651       2.41119673       2.46089100
Al      11.76470821      -0.00644829       2.47592788
Al      11.76373187       2.40376054      -0.02851252
Al       9.40898236       0.00366121       4.94285566
Al       9.40605169       2.40028542       7.39831156
Al      11.75304096       0.00919474       7.41499458
Al      11.76051579       2.41324635       4.93468550
Al       9.38712905       0.00197502       9.86917472
Al       9.42450834       2.44008616      12.33162890
Al      11.78383629      -0.03041297      12.36554904
Al      11.74406291       2.41828524       9.88195065
Al       9.41391714       4.83289397       0.02606174
Al       9.42188446       7.22763995       2.45704216
Al      11.75619359       4.81290426       2.47118436
Al      11.72550010       7.22427862       0.00029244
Al       9.43388640       4.84367882       4.91640742
Al       9.43022992       7.24814307       7.39917124
Al      11.74035950       4.83467255       7.42808361
Al      11.75007467       7.23769103       4.93386205
Al       9.40586041       4.82873935       9.87292629
Al       9.41246195       7.25110988      12.35459402
Al      11.76947589       4.84220799      12.34232753
Al      11.74402429       7.24162233       9.88197851
Al       9.38748335       9.66186058      -0.00496948
Al       9.40551214      12.07805297       2.48789431
Al      11.75523806       9.65415154       2.48497223
Al      11.76830978      12.08559897       0.02171402
Al       9.41095350       9.64178128       4.92206255
Al       9.41554106      12.07012403       7.39055798
Al      11.74624138       9.64921365       7.40217234
Al      11.75872267      12.07504109       4.93318547
Al       9.40244823       9.65588892       9.87049841
Al       9.39580179      12.05978630      12.34031984
Al      11.73201308       9.66712376      12.31704000
Al      11.77290281      12.05284424       9.91023874
