500
Lattice="18.301448111769375 0.0 0.0 0.0 15.467989620082925 0.0 0.0 0.0 15.279506490715109" Properties=species:S:1:pos:R:3 id=sample_001649 pbc="F F F"
Fe       0.01676871       0.00719423      -0.03297809
Fe       0.03239920       1.55746164       1.48206648
Fe       1.80509879      -0.03496063       1.49957430
Fe       1.85087883       1.56114495      -0.01475578
Fe       0.03029118       0.03163893       3.04314006
Fe       0.01082753       1.54841985       4.58524919
Fe       1.83822359       0.04047054       4.58608565
Fe       1.86973925       1.53448462       3.05902025
Fe      -0.01060747       0.02131732       6.11882574
Fe       0.01387085       1.55089420       7.65831639
Fe       1.87264927       0.00645401       7.64204375
Fe       1.84919352       1.49917638       6.12061408
Fe       0.01453136       0.00570191       9.12333859
Fe      -0.01602824       1.55312523      10.68503618
Fe       1.83274984       0.00818820      10.71811123
Fe       1.88150227       1.54906764       9.17580527
Fe       0.00867458      -0.01975815      12.23230631
Fe      -0.01180113       1.54193020      13.73822083
Fe       1.83088588       0.00150644      13.71267352
Fe       1.84443248       1.54321635      12.19342614
Fe      -0.03335113       3.11906506       0.04575923
Fe       0.02567931       4.61633704       1.56804453
Fe       1.81008455       3.09463991       1.49620326
Fe       1.83113989       4.61366758       0.00239775
Fe       0.02840936       3.09677684       3.05252899
Fe       0.02680489       4.62973225       4.60062824
Fe       1.82179573       3.06510688       4.54375738
Fe       1.85900068       4.62583766       3.07151100
Fe       0.02694350       3.07469733       6.12240108
Fe       0.02798908       4.62205248       7.65380755
Fe       1.84160271       3.12533253       7.63580815
Fe       1.84239013       4.66413600       6.09682224
Fe       0.00208528       3.09841152       9.16777120
Fe       0.00066203       4.62498312      10.70275555
Fe       1.81046510       3.08950447      10.74766292
Fe       1.82732836       4.61571083       9.17597496
Fe       0.00235873       3.08281117      12.22497945
Fe      -0.00591650       4.59732293      13.73339122
Fe       1.82805740       3.10733036      13.74840950
Fe       1.82386038       4.66638000      12.22594264
Fe      -0.03374089       6.18938339      -0.00787587
Fe      -0.00412978       7.73030410       1.52504290
Fe       1.81729670       6.21244910       1.54393087
Fe       1.87285421       7.68384097      -0.00613499
Fe       0.02691492       6.14920063       3.05777390
Fe       0.00613531       7.72759735       4.56330332
Fe       1.84205905       6.19578871       4.57190523
Fe       1.84626209       7.72523548       3.04622100
Fe       0.00388381       6.17930482       6.09453269
Fe       0.01242833       7.71329088       7.65435996
Fe       1.83889217       6.15568588       7.64696037
Fe       1.84811899       7.74393867       6.13700572
Fe      -0.01896157       6.19494402       9.14007188
Fe       0.02494266       7.73909191      10.70122938
Fe       1.85418869       6.17668776      10.69002387
Fe       1.83903106       7.74740605       9.15367221
Fe      -0.01124955       6.14684589      12.21776498
Fe       0.02265344       7.73611761      13.73791692
Fe       1.87040730       6.19485913      13.75387415
Fe       1.82510015       7.73875522      12.20690861
Fe      -0.00873756       9.31142754      -0.04809931
Fe      -0.01235551      10.86684015       1.51297956
Fe       1.80270499       9.34293438       1.54784431
Fe       1.80921614      10.86140170      -0.01017588
Fe      -0.00442341       9.26004334       3.00617743
Fe       0.01928579      10.82698410       4.59673484
Fe       1.83191554       9.31668354       4.59495470
Fe       1.79340393      10.79265299       3.09216822
Fe       0.00903346       9.26937969       6.13165315
Fe       0.01041678      10.83689026       7.64688830
Fe       1.81228353       9.24598334       7.58751635
Fe       1.82418301      10.85224921       6.12843698
Fe       0.01396978       9.24100869       9.15802676
Fe       0.00456681      10.82964488      10.67310870
Fe       1.82218163       9.27240571      10.69502843
Fe       1.84373568      10.86981024       9.19442546
Fe      -0.01220144       9.28461783      12.26089738
Fe      -0.03350078      10.84296722      13.74699375
Fe       1.85135310       9.33652922      13.76399566
Fe       1.80922571      10.83347999      12.24843684
Fe       0.02031050      12.36598760       0.01984117
Fe       0.02181021      13.92190540       1.49799809
Fe       1.83852039      12.38746623       1.51595050
Fe       1.86471763      13.90545639      -0.01104703
Fe      -0.00260521      12.36990539       3.05797862
Fe      -0.01285603      13.88504132       4.58753520
Fe       1.83600225      12.36252459       4.60967731
Fe       1.80586915      13.93582902       3.08380242
Fe       0.02404332      12.35557554       6.07857182
Fe       0.01526708      13.95466743       7.64023679
Fe       1.80238878      12.37875339       7.64206210
Fe       1.78145716      13.89951251       6.08844974
Fe      -0.00043750      12.44620806       9.16577119
Fe      -0.01042612      13.92993317      10.70039613
Fe       1.80438893      12.38650674      10.70019127
Fe       1.86952468      13.95048365       9.19599758
Fe      -0.01638874      12.37789519      12.21426206
Fe      -0.00487338      13.93323249      13.73695848
Fe       1.79818411      12.35686965      13.75942189
Fe       1.86687689      13.90599007      12.23764765
Fe       3.65858692       0.00301347      -0.01974397
Fe       3.66524416       1.53543586       1.55625430
Fe       5.48283306      -0.02515528       1.54319819
Fe       5.49017943       1.55959365      -0.01375601
Fe       3.64851832      -0.00342525       3.07834678
Fe       3.67073551       1.57921444       4.57042597
Fe       5.48444667       0.01078849       4.61170165
Fe       5.49346970       1.53156387       3.05038977
Fe       3.65583788       0.00761320       6.11125908
Fe       3.64145692       1.52076519       7.61279305
Fe       5.48947375       0.02696347       7.67122926
Fe       5.46709953       1.56876908       6.10445254
Fe       3.62775581       0.02164852       9.14990489
Fe       3.65534533       1.55547933      10.66933359
Fe       5.48755847       0.00856075      10.71735426
Fe       5.48079299       1.57477576       9.17866268
Fe       3.64172499      -0.00800304      12.20112699
Fe       3.66578854       1.53952752      13.74577102
Fe       5.50335472      -0.00878228      13.80719200
Fe       5.48961285       1.52667402      12.22936923
Fe       3.67801695       3.10135241      -0.03130846
Fe       3.65723750       4.62939705       1.49301411
Fe       5.47326160       3.09018382       1.51670372
Fe       5.49809103       4.60426260      -0.02131804
Fe       3.66090394       3.10505054       3.04793556
Fe       3.69418296       4.63257682       4.57925695
Fe       5.46965219       3.06238747       4.58576198
Fe       5.49844248       4.63326005       3.04322049
Fe       3.63863890       3.07637066       6.13076517
Fe       3.66417076       4.67140819       7.62448010
Fe       5.52753722       3.06564795       7.66348202
Fe       5.47739130       4.65239113       6.10551615
Fe       3.62929092       3.08087729       9.17764591
Fe       3.65668996       4.65832075      10.71338549
Fe       5.44070789       3.09279402      10.75576309
Fe       5.48175062       4.64831266       9.18732998
Fe       3.68004924       3.12502867      12.19656135
Fe       3.67103875       4.63813593      13.73616344
Fe       5.50863480       3.13107866      13.78058510
Fe       5.47404175       4.63661484      12.22910849
Fe       3.69246299       6.18316162      -0.02388149
Fe       3.65545643       7.71239578       1.50627249
Fe       5.49774174       6.16739741       1.51597127
Fe       5.49069467       7.73986517      -0.01769042
Fe       3.69159369       6.17993614       3.07240079
Fe       3.66438922       7.76695049       4.57883699
Fe       5.47073250       6.21800925       4.58978429
Fe       5.51481171       7.70950396       3.03190927
Fe       3.68599577       6.19144918       6.09304236
Fe       3.66323779       7.72734608       7.62792121
Fe       5.49896027       6.16357946       7.62498865
Fe       5.45831614       7.74158726       6.17283807
Fe       3.68207920       6.17310048       9.17097642
Fe       3.63244265       7.77240300      10.68430431
Fe       5.50627584       6.17341576      10.68867446
Fe       5.48004961       7.73814364       9.19583947
Fe       3.63264363       6.16728352      12.23131364
Fe       3.61810923       7.76000517      13.79051108
Fe       5.49104377       6.15787587      13.74028161
Fe       5.47863549       7.74520138      12.22656468
Fe       3.69568704       9.29277739       0.00134936
Fe       3.64394522      10.78550687       1.56118413
Fe       5.48130469       9.26903956       1.55688829
Fe       5.47033728      10.83247297       0.00833975
Fe       3.65242485       9.27331709       3.04021737
Fe       3.64544257      10.82229126       4.60548721
Fe       5.50214695       9.23466530       4.55834415
Fe       5.42286731      10.82291436       3.07873472
Fe       3.69149201       9.28507083       6.13330724
Fe       3.66042180      10.77927425       7.63956970
Fe       5.48348758       9.29806303       7.63864800
Fe       5.55666185      10.83904712       6.11136331
Fe       3.66158075       9.28399207       9.19165286
Fe       3.66571919      10.84667716      10.67124951
Fe       5.45397824       9.26498535      10.72390512
Fe       5.50069060      10.80781829       9.20321467
Fe       3.67803025       9.24264313      12.18165579
Fe       3.69961897      10.86044886      13.72115391
Fe       5.48132521       9.31058672      13.76421609
Fe       5.50982483      10.80190480      12.20343411
Fe       3.65744804      12.37590808       0.02971910
Fe       3.65849404      13.91188782       1.54857857
Fe       5.50016998      12.40214956       1.52348567
Fe       5.47353690      13.92712210       0.01194260
Fe       3.61938806      12.36277025       3.05715058
Fe       3.64984555      13.93120549       4.58324585
Fe       5.48149239      12.40279648       4.56300257
Fe       5.50994944      13.95086353       3.07103319
Fe       3.66434477      12.37699190       6.12442971
Fe       3.66027725      13.93910328       7.65676913
Fe       5.48439997      12.39895066       7.64912397
Fe       5.51079275      13.88728337       6.10449937
Fe       3.64943673      12.38860224       9.20589575
Fe       3.67893584      13.89990420      10.69345890
Fe       5.47384963      12.36957403      10.69757582
Fe       5.50944540      13.91818745       9.15540613
Fe       3.65547059      12.33486832      12.23580076
Fe       3.65470707      13.85794181      13.76228022
Fe       5.50445465      12.34126265      13.73052822
Fe       5.48206604      13.90847349      12.23549116
Fe       7.33602388      -0.02422921       0.04154567
Fe       7.32718973       1.50999239       1.50619180
Fe       9.10965305      -0.00668571       1.53185124
Fe       9.13221204       1.51732246      -0.01475239
Fe       7.33442358       0.01352391       3.06254341
Fe       7.31725139       1.59641714       4.55272852
Fe       9.19575414      -0.02546080       4.57443845
Fe       9.11957170       1.51757309       3.04278196
Fe       7.29678835      -0.05642386       6.10189802
Fe       7.30315362       1.53919441       7.61647430
Fe       9.15883418      -0.04708292       7.62881562
Fe       9.14060994       1.57157776       6.08214578
Fe       7.34042763      -0.00755879       9.17906492
Fe       7.30208375       1.57906438      10.72638991
Fe       9.15563379       0.03130239      10.71342024
Fe       9.12203316       1.54366684       9.14525325
Fe       7.29907331       0.02349617      12.21779109
Fe       7.35505375       1.54041411      13.73320560
Fe       9.17556000       0.00325049      13.74530782
Fe       9.16399891       1.52920640      12.20671760
Fe       7.30464917       3.08570087       0.01534739
Fe       7.28985186       4.60006162       1.55503195
Fe       9.14985030       3.11040450       1.54902965
Fe       9.16184795       4.65928085      -0.00137358
Fe       7.34110137       3.07743023       3.03231890
Fe       7.33840747       4.68549608       4.57631258
Fe       9.13208606       3.08764993       4.63738628
Fe       9.16668872       4.63525355       3.08278291
Fe       7.28088038       3.10461432       6.12176516
Fe       7.30581225       4.66745549       7.60292992
Fe       9.15109427       3.08891010       7.62017105
Fe       9.13596528       4.65175088       6.06200033
Fe       7.29299257       3.06741439       9.13962091
Fe       7.27761142       4.62103431      10.70304291
Fe       9.14526900       3.10628513      10.71605301
Fe       9.15788546       4.64488566       9.16628640
Fe       7.34030067       3.12638788      12.19645727
Fe       7.30186162       4.67923727      13.77985370
Fe       9.10935241       3.07751818      13.72744437
Fe       9.18446953       4.61516657      12.23836443
Fe       7.34392310       6.16401504       0.03683646
Fe       7.31484567       7.72992447       1.52960509
Fe       9.15940531       6.20005838       1.55781449
Fe       9.16136735       7.73392662       0.00282472
Fe       7.35342994       6.17227195       3.04650257
Fe       7.29515187       7.71799988       4.57613185
Fe       9.10550486       6.18069641       4.60342292
Fe       9.14124598       7.72367333       3.06255864
Fe       7.30214266       6.20070698       6.11797639
Fe       7.30143780       7.74655647       7.61438640
Fe       9.14794022       6.17568538       7.62897198
Fe       9.15175354       7.73964920       6.13948381
Fe       7.38828813       6.18340003       9.17513338
Fe       7.33782752       7.76896768      10.70319412
Fe       9.14156872       6.18933891      10.68190981
Fe       9.15141507       7.74394922       9.17630211
Fe       7.28253038       6.19000559      12.26796607
Fe       7.33614352       7.76706153      13.72356492
Fe       9.15600489       6.20777099      13.79270344
Fe       9.15203045       7.71283130      12.19245379
Fe       7.33656866       9.27498162       0.01643066
Fe       7.29634286      10.86283791       1.51564396
Fe       9.15351923       9.26889874       1.52159466
Fe       9.12321762      10.84822535      -0.04294089
Fe       7.32643484       9.28311517       3.02608389
Fe       7.36471525      10.83083101       4.59770981
Fe       9.14879924       9.30439488       4.53157613
Fe       9.12094225      10.86603329       3.07404924
Fe       7.36272922       9.29501484       6.15063986
Fe       7.31201235      10.82357648       7.64890719
Fe       9.17078167       9.29850929       7.63557484
Fe       9.12868605      10.80273172       6.06351816
Fe       7.30862981       9.28677984       9.17996081
Fe       7.31744085      10.80740892      10.69202110
Fe       9.15432963       9.26708753      10.71457241
Fe       9.14764584      10.80480630       9.20647987
Fe       7.36624094       9.28810434      12.23686020
Fe       7.34830242      10.82545741      13.76110163
Fe       9.16751252       9.28531320      13.75808127
Fe       9.16160340      10.82127910      12.25917268
Fe       7.31136403      12.37366086      -0.00105799
Fe       7.34536335      13.92448209       1.53934296
Fe       9.14576451      12.39659848       1.53266075
Fe       9.18512868      13.90195664      -0.00694410
Fe       7.37874107      12.34379771       3.05760230
Fe       7.34098536      13.93681461       4.55855560
Fe       9.16347531      12.40653940       4.59568343
Fe       9.13368859      13.95697630       3.06400447
Fe       7.34799203      12.38940820       6.14376948
Fe       7.33395517      13.94586645       7.64335455
Fe       9.10674951      12.37928507       7.63830324
Fe       9.17445095      13.93697318       6.13578262
Fe       7.33075042      12.37346337       9.16439514
Fe       7.31600825      13.89803636      10.66930423
Fe       9.17939762      12.33633768      10.67904693
Fe       9.16601733      13.91467260       9.15945379
Fe       7.33822833      12.38951226      12.23385399
Fe       7.29983878      13.96374978      13.78538958
Fe       9.17736156      12.38964937      13.73002125
Fe       9.13858529      13.92785372      12.22042787
Fe      10.96677326       0.02119390       0.00755677
Fe      10.97567787       1.52444927       1.58024947
Fe      12.82311542      -0.01130464       1.52738458
Fe      12.76867334       1.54392437      -0.03792639
Fe      10.93452264      -0.03077785       3.06135386
Fe      10.98965173       1.52089553       4.58920148
Fe      12.82771416      -0.04471274       4.59240500
Fe      12.82619916       1.53686586       3.02932674
Fe      10.99237622      -0.02341983       6.14275134
Fe      10.97069805       1.52840638       7.61263230
Fe      12.81636100       0.03103372       7.60267901
Fe      12.78745136       1.56107312       6.09689051
Fe      10.94659901      -0.01411329       9.17953055
Fe      10.95662613       1.51247046      10.72890303
Fe      12.80907412       0.01308905      10.71408431
Fe      12.79275101       1.53451797       9.15763038
Fe      10.99070898      -0.00881724      12.23670520
Fe      10.92471592       1.56754510      13.70991225
Fe      12.81440652      -0.02650448      13.71065366
Fe      12.79528373       1.57054592      12.26744032
Fe      10.96103999       3.05806358       0.05548147
Fe      10.93767859       4.63761316       1.51021823
Fe      12.84212684       3.10599771       1.52957743
Fe      12.77821150       4.63303487      -0.00140447
Fe      10.96409667       3.08704950       3.04756073
Fe      10.99044649       4.65914358       4.60443607
Fe      12.81074066       3.07375940       4.56307172
Fe      12.82545887       4.65938055       3.04294650
Fe      11.00297828       3.10215986       6.06167085
Fe      10.97257584       4.62988794       7.68856539
Fe      12.82340970       3.09493353       7.65510899
Fe      12.82118118       4.64000941       6.08868798
Fe      10.94249385       3.13914381       9.11614482
Fe      11.01488003       4.63811056      10.71903426
Fe      12.79611735       3.12238668      10.69979360
Fe      12.80370876       4.62860131       9.22893835
Fe      10.95556462       3.08087546      12.21722900
Fe      10.97659115       4.63909865      13.73451925
Fe      12.79883475       3.09458413      13.75180434
Fe      12.80910544       4.62525190      12.20987756
Fe      10.99426518       6.15231714      -0.01042542
Fe      10.97567270       7.76079651       1.57668056
Fe      12.78331405       6.19030438       1.52569785
Fe      12.82511156       7.75125802      -0.00748696
Fe      10.96583079       6.16631567       3.07915644
Fe      10.96673296       7.70072503       4.55953495
Fe      12.80169286       6.18625541       4.61968030
Fe      12.80954687       7.79645346       3.05328027
Fe      11.03805865       6.17486785       6.08859047
Fe      10.99776273       7.73867340       7.65179732
Fe      12.82005678       6.14647937       7.58770983
Fe      12.80734476       7.75952170       6.13249931
Fe      10.98507083       6.19798044       9.13819872
Fe      10.97546698       7.73071574      10.71293572
Fe      12.78292315       6.15966433      10.68587812
Fe      12.78860557       7.76678182       9.17973928
Fe      10.94568051       6.18684511      12.20493221
Fe      11.00983119       7.71590979      13.76315297
Fe      12.81830969       6.16206444      13.73289996
Fe      12.82185083       7.75888811      12.19071873
Fe      10.97938463       9.30338834       0.02290351
Fe      11.01341800      10.80855845       1.54666130
Fe      12.81945342       9.28158765       1.51205465
Fe      12.84566128      10.84755374      -0.00048514
Fe      10.99594306       9.25254761       3.03553921
Fe      10.96963264      10.80737074       4.58672453
Fe      12.82800287       9.25837590       4.60630807
Fe      12.85681286      10.81483853       3.00510335
Fe      10.96800199       9.25261595       6.14868779
Fe      10.97239936      10.84442808       7.64313136
Fe      12.86524779       9.32409761       7.65167781
Fe      12.82260019      10.78356027       6.14227314
Fe      10.98330965       9.31980838       9.16991228
Fe      10.99101209      10.83614882      10.72725735
Fe      12.79598261       9.28752802      10.69151429
Fe      12.83990929      10.86740299       9.14762829
Fe      10.99819951       9.27681638      12.21934021
Fe      11.01332434      10.86408090      13.70562658
Fe      12.79325749       9.27597657      13.74035632
Fe      12.84251629      10.81630347      12.22557771
Fe      11.01529513      12.38849283       0.02188906
Fe      10.95927014      13.90458758       1.56745972
Fe      12.81213295      12.37339434       1.57043059
Fe      12.79699115      13.87894146       0.00826764
Fe      10.97887362      12.39027786       3.02684569
Fe      10.97388391      13.92793399       4.59869541
Fe      12.80689597      12.35458362       4.57287138
Fe      12.82891394      13.88352906       3.07236306
Fe      10.97418551      12.34536106       6.12819728
Fe      11.01340729      13.89735059       7.62304453
Fe      12.82736550      12.38271622       7.62500245
Fe      12.81579569      13.93252091       6.13260366
Fe      10.96211803      12.34382696       9.18621874
Fe      10.99175941      13.92693373      10.69579516
Fe      12.85784079      12.38705713      10.69213962
Fe      12.80117096      13.93637516       9.17343501
Fe      10.98196906      12.34660149      12.22098192
Fe      10.98728823      13.94452397      13.72173807
Fe      12.84921622      12.37879528      13.74420112
Fe      12.83732656      13.90489796      12.19212627
Fe      14.63934365       0.06185934       0.00039774
Fe      14.61517396       1.57060852       1.52204132
Fe      16.46615925       0.00056039       1.49457417
Fe      16.44792004       1.52692627      -0.03619317
Fe      14.61498222      -0.00938466       3.06793641
Fe      14.67324468       1.53876871       4.58541689
Fe      16.43702140      -0.00173079       4.59067388
Fe      16.46630891       1.52551082       3.04848618
Fe      14.65616673       0.00789367       6.10290982
Fe      14.66711394       1.58263665       7.62356538
Fe      16.49655735      -0.01571162       7.66225736
Fe      16.47732828       1.52851837       6.11568884
Fe      14.60826479       0.01198671       9.16315604
Fe      14.66788884       1.57217217      10.71438894
Fe      16.46735968       0.00575037      10.70521273
Fe      16.46998822       1.56198530       9.13512132
Fe      14.69492148       0.03464736      12.22079943
Fe      14.67484512       1.58536688      13.75263748
Fe      16.47858312       0.02006988      13.76223606
Fe      16.49577676       1.56966929      12.23537818
Fe      14.59516630       3.11101433      -0.02102648
Fe      14.65346880       4.63316674       1.51832379
Fe      16.47844215       3.11076948       1.53214182
Fe      16.47792359       4.65984210      -0.00454460
Fe      14.66275546       3.11149901       3.08785844
Fe      14.67065384       4.67534198       4.56553357
Fe      16.46609758       3.11656030       4.59075737
Fe      16.44477812       4.66225876       3.04372778
Fe      14.62733175       3.04046574       6.13751523
Fe      14.65052036       4.60703987       7.64411873
Fe      16.48467966       3.10696884       7.65596061
Fe      16.43785113       4.66187824       6.13466465
Fe      14.64361186       3.09181434       9.15134879
Fe      14.64272613       4.63415977      10.67221589
Fe      16.56773958       3.07379162      10.68764480
Fe      16.48195712       4.63957316       9.19781840
Fe      14.68047781       3.11320663      12.23325093
Fe      14.69470473       4.65805005      13.78559590
Fe      16.49306275       3.11892454      13.73350693
Fe      16.45623022       4.63845663      12.23635061
Fe      14.61911783       6.17402538       0.01773329
Fe      14.58482030       7.73483805       1.51423293
Fe      16.49002583       6.16547600       1.52284251
Fe      16.44205281       7.71948907      -0.01593165
Fe      14.68061734       6.20077579       3.06001072
Fe      14.62909166       7.74399149       4.55852582
Fe      16.43529282       6.18398792       4.58019036
Fe      16.48199989       7.72258798       3.04832358
Fe      14.60033408       6.18837719       6.10802770
Fe      14.64600929       7.71377716       7.66878567
Fe      16.49327480       6.18512722       7.62896535
Fe      16.43762962       7.76345710       6.12958078
Fe      14.63499574       6.20086415       9.16661171
Fe      14.64225803       7.75952710      10.71633122
Fe      16.51829576       6.19570352      10.74169561
Fe      16.47099358       7.72174343       9.19466064
Fe      14.62881703       6.17915740      12.20418427
Fe      14.60597178       7.74549160      13.79022298
Fe      16.46989727       6.18456304      13.75550448
Fe      16.44478949       7.73040785      12.23853596
Fe      14.60155518       9.26330321       0.03862605
Fe      14.63666012      10.86465873       1.53698911
Fe      16.45399375       9.29806765       1.53308946
Fe      16.44913000      10.81799775       0.01010785
Fe      14.64384425       9.26428109       3.04984182
Fe      14.61531675      10.86158088       4.58778476
Fe      16.44770455       9.27059073       4.56708030
Fe      16.47629748      10.83249540       3.10642362
Fe      14.61186694       9.27212473       6.09006805
Fe      14.61496750      10.82755047       7.66713112
Fe      16.44629597       9.28259877       7.66807742
Fe      16.43179264      10.80319359       6.10435232
Fe      14.65055141       9.30163509       9.14930904
Fe      14.63347783      10.83139284      10.67544397
Fe      16.46826381       9.23128198      10.69402693
Fe      16.47579879      10.79676460       9.14240059
Fe      14.66294751       9.28100114      12.23356501
Fe      14.64660644      10.86662207      13.75281632
Fe      16.48052238       9.25629833      13.71554416
Fe      16.43573483      10.83687970      12.19078709
Fe      14.67199250      12.38153694       0.00856229
Fe      14.65253777      13.91683497       1.51163298
Fe      16.49476453      12.36453879       1.51520882
Fe      16.47057639      13.90248716      -0.04402648
Fe      14.67997905      12.35033441       3.07229975
Fe      14.66600937      13.94796621       4.58185537
Fe      16.54944030      12.39326516       4.58643030
Fe      16.44440886      13.91720955       3.04713414
Fe      14.62454339      12.34900780       6.10073229
Fe      14.64187557      13.95658365       7.66175171
Fe      16.50092701      12.34716995       7.64506690
Fe      16.50496035      13.91961614       6.08846893
Fe      14.61765414      12.40119028       9.19132181
Fe      14.65314484      13.94879189      10.68061671
Fe      16.44049550      12.36117617      10.69922157
Fe      16.46593544      13.93660220       9.18517275
Fe      14.66595060      12.34191200      12.22252795
Fe      14.62339157      13.93883256      13.74988140
Fe      16.48647266      12.35471618      13.76384877
Fe      16.42854021      13.92034760      12.24564354
