256
Lattice="11.73920112062696 0.0 0.0 0.0 12.181536951342974 0.0 0.0 0.0 13.00389344676705" Properties=species:S:1:pos:R:3 id=sample_001222 pbc="F F F"
Fe       0.00069505       0.01247554      -0.00294536
Fe       0.00098149       1.52192333       1.61759729
Fe       1.44706754      -0.00861304       1.61043393
Fe       1.47593557       1.52339389       0.00040340
Fe       0.01442235       0.00648371       3.24529516
Fe      -0.00589900       1.52313927       4.87783242
Fe       1.45889272       0.02322072       4.89512843
Fe       1.45493624       1.51937128       3.25547928
Fe       0.01684474       0.00397337       6.51278704
Fe      -0.00569763       1.51164889       8.13982020
Fe       1.46105260      -0.00596816       8.14307889
Fe       1.48143044       1.52603088       6.50723801
Fe       0.00136742      -0.00880825       9.75279030
Fe       0.01071233       1.51829193      11.36789269
Fe       1.46210564      -0.00712215      11.38406975
Fe       1.47878787       1.51450913       9.75112432
Fe      -0.01088299       3.03624004      -0.00587124
Fe       0.01163312       4.56463791       1.62094052
Fe       1.47418366       3.03823311       1.61877231
Fe       1.46422934       4.58637464       0.00097126
Fe      -0.00212403       3.04170074       3.27214436
Fe      -0.00434929       4.55399472       4.87906907
Fe       1.46226371       3.04657232       4.86338821
Fe       1.47570521       4.57368257       3.25337939
Fe      -0.01141883       3.04826246       6.51701335
Fe      -0.00447452       4.55065134       8.13276157
Fe       1.46542074       3.05162057       8.13294057
Fe       1.46146773       4.55590849       6.49630325
Fe       0.00661063       3.04688353       9.76500857
Fe      -0.00372939       4.55186535      11.37828332
Fe       1.46027715       3.03116481      11.37569917
Fe       1.46120674       4.56838278       9.75622836
Fe       0.01783999       6.08280121       0.00443715
Fe       0.00132326       7.60772714       1.62333019
Fe       1.47133920       6.08493472       1.62195740
Fe       1.46169166       7.61610992       0.00674047
Fe      -0.00804220       6.08406601       3.25008319
Fe      -0.00536459       7.60058465       4.88859518
Fe       1.47475342       6.08614834       4.89339808
Fe       1.46942006       7.62079305       3.24375687
Fe      -0.01286802       6.09205565       6.50305245
Fe      -0.01902926       7.63358012       8.12781957
Fe       1.46537840       6.08396637       8.11385657
Fe       1.45156215       7.60111034       6.49999386
Fe       0.00914676       6.09058240       9.73655048
Fe       0.00096962       7.60337905      11.38479087
Fe       1.46360928       6.09706547      11.39138334
Fe       1.47142142       7.62853362       9.76301792
Fe      -0.01296560       9.12613784       0.00203943
Fe      -0.00133699      10.65463087       1.63489332
Fe       1.46723279       9.13830625       1.63454578
Fe       1.46098506      10.64927123       0.00144026
Fe      -0.00677201       9.16236515       3.25974212
Fe      -0.00432030      10.66319205       4.86937202
Fe       1.45296104       9.12276215       4.88048462
Fe       1.46487237      10.66103566       3.23733261
Fe       0.00335581       9.15228153       6.49139034
Fe       0.00491061      10.65138211       8.12360885
Fe       1.47625659       9.13849095       8.12593052
Fe       1.46261777      10.65116397       6.49450168
Fe       0.00466936       9.12143876       9.75702748
Fe       0.00129519      10.65730571      11.37194908
Fe       1.45823653       9.13773367      11.39566751
Fe       1.47969254      10.65673168       9.77145789
Fe       2.92227871       0.01034639       0.01189853
Fe       2.93889334       1.51381896       1.61526054
Fe       4.39940064      -0.01082632       1.63746541
Fe       4.40628244       1.53276740       0.01491720
Fe       2.93813899       0.00218877       3.25078777
Fe       2.93688521       1.52537999       4.88300084
Fe       4.40932692      -0.00533018       4.88444419
Fe       4.39620942       1.51840788       3.22850105
Fe       2.93980513       0.01139881       6.50144423
Fe       2.94060840       1.51729535       8.11785875
Fe       4.39846058       0.00431167       8.12982919
Fe       4.38806822       1.53715513       6.51512223
Fe       2.92951057      -0.00245591       9.75667907
Fe       2.93309890       1.53263088      11.36778904
Fe       4.39832291      -0.00135119      11.35465868
Fe       4.40369050       1.52097554       9.75360332
Fe       2.93681574       3.02503838       0.02292870
Fe       2.92919531       4.56889662       1.63684528
Fe       4.40947103       3.03735053       1.63073814
Fe       4.40888746       4.56849304      -0.00435628
Fe       2.92555081       3.04588770       3.24539908
Fe       2.94531604       4.56333617       4.87338398
Fe       4.39742230       3.04385213       4.88295043
Fe       4.39797845       4.58529616       3.24115711
Fe       2.92864124       3.05871438       6.52819944
Fe       2.93220512       4.56624159       8.12949778
Fe       4.40495187       3.04890136       8.11780983
Fe       4.42161046       4.56956093       6.49073877
Fe       2.95029356       3.05065903       9.75198213
Fe       2.93145756       4.57423591      11.36590331
Fe       4.41096049       3.03788291      11.36817173
Fe       4.40794516       4.56994475       9.74707528
Fe       2.93994492       6.08419931       0.00818729
Fe       2.92961707       7.60898379       1.61118475
Fe       4.42028722       6.09474636       1.63853105
Fe       4.38927091       7.61547814       0.00371326
Fe       2.94879446       6.10770764       3.25814813
Fe       2.91988188       7.61103692       4.86685229
Fe       4.39844135       6.10490963       4.87524131
Fe       4.39203066       7.61741856       3.25680355
Fe       2.92829774       6.09903318       6.50047715
Fe       2.93177870       7.60982400       8.12688497
Fe       4.40706306       6.08914246       8.13656198
Fe       4.40078560       7.62332197       6.51459961
Fe       2.92915416       6.09592583       9.74474264
Fe       2.91844847       7.60528418      11.37872213
Fe       4.40712746       6.08863045      11.39233009
Fe       4.41922730       7.60261720       9.75933590
Fe       2.91908355       9.13194959      -0.01133361
Fe       2.92744886      10.66843504       1.62417852
Fe       4.41377109       9.14158982       1.63546878
Fe       4.38591472      10.65474003      -0.00508502
Fe       2.93895667       9.10889470       3.23853314
Fe       2.92973558      10.66182380       4.87622111
Fe       4.40014992       9.14607255       4.86435450
Fe       4.40163213      10.66888642       3.24953255
Fe       2.95700550       9.14281288       6.49427087
Fe       2.92456959      10.66467969       8.12485294
Fe       4.39840830       9.12220754       8.13521251
Fe       4.38586414      10.65241487       6.52834691
Fe       2.92021511       9.13927447       9.76769638
Fe       2.93335460      10.66413619      11.37075466
Fe       4.40531053       9.11826434      11.39950702
Fe       4.40180695      10.64540854       9.76239756
Fe       5.88430453      -0.00344041      -0.01135681
Fe       5.86971766       1.50462769       1.62406077
Fe       7.35449819       0.01086743       1.63310389
Fe       7.34711975       1.51700076       0.00128745
Fe       5.87650031      -0.01469351       3.24956074
Fe       5.86350865       1.51573485       4.88538522
Fe       7.34607817      -0.01356678       4.87098963
Fe       7.34317662       1.50651831       3.24947396
Fe       5.85077496       0.00908051       6.49821108
Fe       5.86069461       1.52444753       8.12457828
Fe       7.33153729      -0.00877244       8.12621852
Fe       7.34220006       1.50540644       6.50001381
Fe       5.86273949       0.01375194       9.74665635
Fe       5.88261261       1.54172952      11.38646924
Fe       7.34581859       0.01351915      11.38874073
Fe       7.34125190       1.54020793       9.76281787
Fe       5.86017638       3.02562869       0.00565549
Fe       5.88475881       4.58015154       1.62688904
Fe       7.33947527       3.05855646       1.65114377
Fe       7.33140741       4.54957202      -0.00332431
Fe       5.86563909       3.03224711       3.28163637
Fe       5.86250076       4.57572419       4.88532165
Fe       7.34283793       3.03976185       4.87530473
Fe       7.33992787       4.56751348       3.24585423
Fe       5.86675587       3.03695957       6.49441638
Fe       5.87352609       4.57308665       8.13052134
Fe       7.34318667       3.05851883       8.15340195
Fe       7.32745983       4.56654212       6.50403092
Fe       5.88398321       3.05300433       9.75558261
Fe       5.87223467       4.57712140      11.36276527
Fe       7.35056719       3.02340161      11.37684138
Fe       7.34958796       4.57217009       9.76844702
Fe       5.88483630       6.08121490       0.01252845
Fe       5.87246188       7.59670292       1.62727053
Fe       7.34926812       6.08045915       1.63132860
Fe       7.34040047       7.61334403       0.00644774
Fe       5.86323742       6.10311083       3.27184751
Fe       5.87500510       7.62367441       4.88160380
Fe       7.32662528       6.08862230       4.87091366
Fe       7.33921082       7.62619679       3.22499309
Fe       5.86033497       6.10293765       6.50597729
Fe       5.87226659       7.62519970       8.13123544
Fe       7.32242844       6.10182835       8.10590585
Fe       7.35388304       7.61202379       6.48980840
Fe       5.87001991       6.09463489       9.75196775
Fe       5.85101718       7.61066252      11.38783395
Fe       7.34861347       6.08168918      11.38034267
Fe       7.32787493       7.61042879       9.76959366
Fe       5.87539971       9.13750934      -0.01381044
Fe       5.88799363      10.65345587       1.61744161
Fe       7.33533975       9.14720617       1.64213314
Fe       7.32675079      10.63900767      -0.00162099
Fe       5.87036253       9.14004817       3.24753546
Fe       5.86106235      10.66023755       4.87745616
Fe       7.34442495       9.13668938       4.85580293
Fe       7.33934493      10.66732602       3.24336914
Fe       5.86631898       9.13293153       6.50443483
Fe       5.86847801      10.64255421       8.12703685
Fe       7.32916637       9.12713556       8.13128349
Fe       7.32970929      10.65651800       6.50325834
Fe       5.85686034       9.12321329       9.76986135
Fe       5.87269448      10.65699514      11.39378828
Fe       7.34220891       9.13687518      11.38542579
Fe       7.33829942      10.67183554       9.75020169
Fe       8.80372186       0.00602444      -0.01379684
Fe       8.81709416       1.51976390       1.60757169
Fe      10.27251357      -0.01551147       1.62539450
Fe      10.24970898       1.53475917      -0.01152028
Fe       8.80289589      -0.00015093       3.24757041
Fe       8.80739495       1.52119865       4.87709563
Fe      10.27351448       0.00553532       4.87462811
Fe      10.28472766       1.52102698       3.24752886
Fe       8.81104032       0.00961821       6.49625087
Fe       8.80426818       1.53055264       8.12690994
Fe      10.26435548       0.00629904       8.11847443
Fe      10.28244672       1.52567632       6.50543475
Fe       8.79909150      -0.00404821       9.75019567
Fe       8.81670767       1.52395387      11.37846051
Fe      10.26617628      -0.00850564      11.37809645
Fe      10.27346519       1.53146676       9.75737379
Fe       8.80591192       3.04831914       0.00525655
Fe       8.79020030       4.56856122       1.64482966
Fe      10.27449983       3.06066567       1.63429300
Fe      10.26642160       4.57835067       0.00277835
Fe       8.80441783       3.06079602       3.25631891
Fe       8.79746791       4.59159999       4.87663238
Fe      10.27452404       3.05482026       4.87829712
Fe      10.27411392       4.55043992       3.26777810
Fe       8.81738611       3.04525852       6.50017977
Fe       8.80446828       4.55980017       8.11836461
Fe      10.28668664       3.05597254       8.11922058
Fe      10.28203114       4.56338717       6.49765248
Fe       8.80681668       3.05681383       9.77095806
Fe       8.79271863       4.56891104      11.38805821
Fe      10.26466836       3.02439289      11.38398889
Fe      10.28873810       4.56419758       9.74219150
Fe       8.80850027       6.08591082       0.00099526
Fe       8.81819939       7.61001589       1.60963218
Fe      10.27859323       6.08955981       1.61834383
Fe      10.26983763       7.60812542      -0.00688816
Fe       8.81354683       6.10169596       3.25161777
Fe       8.80338882       7.60145196       4.86749285
Fe      10.29630934       6.08987859       4.88702547
Fe      10.27863486       7.61804593       3.25263528
Fe       8.80609238       6.09664402       6.51256394
Fe       8.80698406       7.61110674       8.13062289
Fe      10.28890831       6.09573044       8.12993051
Fe      10.27342087       7.62154152       6.49243383
Fe       8.80484350       6.08586804       9.74742152
Fe       8.81960483       7.62800838      11.39206032
Fe      10.26383635       6.09370828      11.37559366
Fe      10.27390606       7.62393268       9.74927307
Fe       8.80560497       9.14064013       0.00143149
Fe       8.81002555      10.66300621       1.62711000
Fe      10.26735967       9.13411655       1.60458747
Fe      10.27017591      10.64337144      -0.00762884
Fe       8.79653744       9.12954743       3.24162103
Fe       8.80282302      10.67038781       4.87639882
Fe      10.28644588       9.14389272       4.89307800
Fe      10.26951081      10.66083554       3.24599514
Fe       8.78777858       9.14192049       6.49502751
Fe       8.80755546      10.66923928       8.11288979
Fe      10.29186062       9.13248103       8.12436066
Fe      10.29652587      10.63297469       6.49483020
Fe       8.79923145       9.12126431       9.73359111
Fe       8.79124901      10.67230150      11.36265079
Fe      10.26505299       9.15429080      11.38168747
Fe      10.26617074      10.67132895       9.74824378
