256
Lattice="15.700083247780382 0.0 0.0 0.0 17.195605469749264 0.0 0.0 0.0 19.69992580296718" Properties=species:S:1:pos:R:3 id=sample_000259 pbc="F F F"
Al      -0.00731994      -0.00565263      -0.00828350
Al       0.00774980       2.15456431       2.46728354
Al       1.96425001      -0.00271054       2.46190923
Al       1.98176236       2.13880240      -0.01038707
Al       0.01598530      -0.00024430       4.92266147
Al      -0.00039194       2.14529157       7.39377306
Al       1.96002080      -0.00701683       7.38829196
Al       1.97115871       2.13959530       4.92705258
Al       0.02210680      -0.00200729       9.85515215
Al       0.01190501       2.14370547      12.32596750
Al       1.96351158       0.00052291      12.33745813
Al       1.95565204       2.16459233       9.83338017
Al      -0.01205282      -0.01266053      14.77927647
Al       0.00570860       2.15422182      17.25446386
Al       1.96996796       0.01393014      17.21992742
Al       1.96790613       2.16082862      14.77437323
Al      -0.00558815       4.29500580       0.01831769
Al      -0.01140261       6.45105899       2.48001473
Al       1.95887714       4.29672906       2.45088258
Al       1.94741615       6.45604257      -0.01562997
Al      -0.00609817       4.29916485       4.91437320
Al       0.00814985       6.44731992       7.38889802
Al       1.96292430       4.28945924       7.37722491
Al       1.95587811       6.45255517       4.93698789
Al       0.00085447       4.29970050       9.86417008
Al       0.00383031       6.45099098      12.29445782
Al       1.95751167       4.30526771      12.30329821
Al       1.94550867       6.44700970       9.85637543
Al       0.01462257       4.29578702      14.78294228
Al      -0.00286517       6.44529868      17.23043371
Al       1.94273184       4.29620929      17.21585275
Al       1.94057055       6.44482260      14.76688369
Al      -0.00623617       8.60815764       0.00136008
Al      -0.01063472      10.75318246       2.46873749
Al       1.95978877       8.59772884       2.45362416
Al       1.95755784      10.75726547      -0.00499482
Al       0.01059044       8.60810099       4.92417521
Al      -0.00995546      10.74089824       7.39777172
Al       1.95735314       8.59710100       7.39584744
Al       1.96065076      10.74422228       4.91932417
Al       0.00233836       8.60318457       9.86264255
Al       0.00955504      10.75441732      12.32917380
Al       1.95594523       8.60330322      12.30891125
Al       1.96568197      10.74945546       9.85689681
Al      -0.00434467       8.61452864      14.76891274
Al      -0.00041505      10.73429978      17.24247711
Al       1.96043618       8.60423457      17.22627347
Al       1.96698122      10.74412619      14.77722264
Al      -0.00920376      12.88586905       0.00806054
Al      -0.00845007      15.03805111       2.46079497
Al       1.95434203      12.89634672       2.45440030
Al       1.97408828      15.04818743       0.01129164
Al      -0.00030978      12.89876647       4.93357034
Al       0.00465419      15.04463465       7.40132532
Al       1.95547071      12.90433328       7.40889491
Al       1.96524737      15.03695930       4.93268191
Al      -0.01544903      12.89548009       9.85061588
Al      -0.01496038      15.04392993      12.29530349
Al       1.96262594      12.90344799      12.31820623
Al       1.94024305      15.03815295       9.86323709
Al       0.00669819      12.88656106      14.76961421
Al      -0.00277297      15.05921377      17.25524070
Al       1.94032217      12.90800142      17.24134828
Al       1.95813082      15.05091121      14.76004591
Al       3.92182026       0.00720133      -0.00368934
Al       3.91126706       2.13484343       2.46334727
Al       5.89043062      -0.02024903       2.48825517
Al       5.90554830       2.15292193      -0.00264463
Al       3.91200299       0.01196164       4.94432038
Al       3.94218235       2.14768162       7.38769041
Al       5.90464822       0.00979942       7.38351486
Al       5.87417941       2.15386274       4.94191131
Al       3.91077061      -0.01015280       9.85776187
Al       3.92472100       2.14158511      12.31095653
Al       5.89677456       0.00559662      12.32002226
Al       5.89001258       2.14627857       9.82782292
Al       3.93857512       0.00065006      14.78363253
Al       3.92942800       2.14049391      17.22156226
Al       5.87655909      -0.00601682      17.22888118
Al       5.88402954       2.13107112      14.75597649
Al       3.93983063       4.29821492      -0.00754846
Al       3.93571690       6.46475090       2.46592181
Al       5.88386576       4.29715239       2.46498357
Al       5.88961469       6.44762376       0.01050018
Al       3.91177770       4.29226528       4.93446551
Al       3.93388644       6.46518743       7.38675671
Al       5.89690964       4.28810777       7.39255002
Al       5.87886194       6.45110924       4.92984341
Al       3.91473917       4.31637741       9.86720831
Al       3.92224172       6.45468181      12.30348083
Al       5.88133107       4.31152213      12.31779462
Al       5.90323364       6.44525075       9.86364806
Al       3.91513540       4.29592655      14.76805537
Al       3.91759976       6.45079341      17.22656383
Al       5.88976978       4.30890128      17.23071131
Al       5.90239747       6.45364226      14.77121846
Al       3.91604960       8.58741097       0.00582326
Al       3.93698106      10.76560647       2.46892397
Al       5.90241919       8.59669343       2.45660849
Al       5.88829866      10.72901048      -0.00954092
Al       3.91804484       8.59891536       4.92891926
Al       3.91404117      10.76122404       7.38541634
Al       5.88771744       8.58976668       7.39453311
Al       5.88806178      10.74246138       4.92143594
Al       3.93249045       8.58831881       9.85515262
Al       3.92562954      10.74527842      12.31081175
Al       5.89789659       8.59796789      12.30843311
Al       5.88739683      10.76154435       9.82928918
Al       3.93553648       8.61051308      14.77471343
Al       3.90906950      10.75713315      17.23357212
Al       5.89640839       8.61176881      17.25057140
Al       5.89120997      10.75815654      14.78311373
Al       3.93192864      12.90087951      -0.00145791
Al       3.92810576      15.05467489       2.45467057
Al       5.88908301      12.89346966       2.46956620
Al       5.89335730      15.05253239      -0.00076096
Al       3.92475570      12.89302772       4.92570624
Al       3.93468650      15.03548568       7.37045250
Al       5.88264049      12.90197129       7.38014312
Al       5.88481990      15.03780853       4.93170661
Al       3.92740528      12.88796728       9.85585193
Al       3.93537393      15.03457328      12.32332835
Al       5.87259794      12.90120123      12.31092127
Al       5.88738369      15.04280175       9.84918702
Al       3.93449094      12.91470961      14.76706533
Al       3.92436737      15.04493406      17.23640113
Al       5.90431704      12.90280595      17.23628934
Al       5.89704527      15.04530735      14.77336658
Al       7.84751673       0.01182898       0.00129786
Al       7.84416203       2.15956570       2.46949599
Al       9.82573039       0.00467129       2.44343622
Al       9.81103064       2.14762539      -0.00103553
Al       7.85859031       0.01713534       4.91425785
Al       7.86742140       2.14898317       7.38651340
Al       9.81668864      -0.01118586       7.38853895
Al       9.80721834       2.15266961       4.92480411
Al       7.86690906       0.00186351       9.84568365
Al       7.84870203       2.13374836      12.30681038
Al       9.80961445       0.00291908      12.30660617
Al       9.79677910       2.13517407       9.84227763
Al       7.85268192      -0.01751054      14.77693615
Al       7.84941695       2.15544579      17.23539089
Al       9.80334769       0.01088406      17.24129486
Al       9.80282180       2.15481276      14.77701457
Al       7.84834995       4.29374771       0.00304825
Al       7.84351110       6.44252979       2.47129827
Al       9.81679270       4.28707697       2.45984004
Al       9.81806041       6.44214663      -0.00815600
Al       7.84708570       4.30145757       4.93042380
Al       7.86246831       6.43781099       7.39514888
Al       9.81305461       4.30137765       7.38252298
Al       9.79807924       6.42712656       4.93630659
Al       7.84988529       4.28742462       9.85236580
Al       7.85791746       6.45800423      12.32742004
Al       9.81343899       4.31039653      12.31744529
Al       9.80061461       6.43228782       9.83523511
Al       7.83606662       4.29969994      14.75837259
Al       7.85582365       6.44377611      17.24315625
Al       9.81643977       4.30642616      17.21989422
Al       9.82286444       6.44818394      14.75617251
Al       7.86846896       8.59698342      -0.00427877
Al       7.83419922      10.74153470       2.45085759
Al       9.80807687       8.59885482       2.45641152
Al       9.80954540      10.76284081      -0.00728467
Al       7.86827160       8.61011095       4.91878354
Al       7.84813676      10.74781627       7.39662147
Al       9.80240839       8.58765590       7.38119848
Al       9.81158696      10.74475489       4.93923935
Al       7.83240057       8.58773104       9.86260558
Al       7.83525713      10.73783948      12.30452976
Al       9.81822786       8.60392506      12.30458570
Al       9.81716414      10.76129309       9.85489328
Al       7.84468006       8.60320416      14.76672061
Al       7.84698603      10.75601360      17.25149500
Al       9.79114081       8.59883679      17.22157056
Al       9.80942370      10.76162751      14.77861559
Al       7.85679214      12.89156372      -0.00880515
Al       7.86310459      15.04552338       2.46639764
Al       9.79789945      12.90924067       2.44027011
Al       9.79120869      15.04434314      -0.00116672
Al       7.84294241      12.89003899       4.94106035
Al       7.84078799      15.04304000       7.39007237
Al       9.79401176      12.89598736       7.38034837
Al       9.81002963      15.04156771       4.90972701
Al       7.85790325      12.90198816       9.85342362
Al       7.84978097      15.04151323      12.30942299
Al       9.80938055      12.88711537      12.29227230
Al       9.81033922      15.04392781       9.83601876
Al       7.85859049      12.90862693      14.77119214
Al       7.86366270      15.03687265      17.23893244
Al       9.82710169      12.89820045      17.21908469
Al       9.81121049      15.05672138      14.76522785
Al      11.77093749       0.00875086      -0.01685764
Al      11.78096460       2.13541063       2.45814298
Al      13.71871269      -0.00752928       2.46960391
Al      13.72075242       2.15242381       0.00942414
Al      11.76666145       0.01357198       4.94236325
Al      11.76306318       2.13456203       7.37407833
Al      13.74726598      -0.01590909       7.37668621
Al      13.73837409       2.16854775       4.93130852
Al      11.76372885       0.00795675       9.85850815
Al      11.79436824       2.14443777      12.31303198
Al      13.73824290      -0.00273642      12.30346954
Al      13.73529118       2.14219123       9.84073015
Al      11.77009544      -0.01588903      14.78171197
Al      11.78144983       2.13539886      17.24114900
Al      13.71927793      -0.00308379      17.22735579
Al      13.74561487       2.15854904      14.75345519
Al      11.77318799       4.32093991       0.00674285
Al      11.78511759       6.44666904       2.48508841
Al      13.73257809       4.30032193       2.46929533
Al      13.72705861       6.45816918       0.00362698
Al      11.76119613       4.29924758       4.91342989
Al      11.77965947       6.45684615       7.40399028
Al      13.73353164       4.29721295       7.40539531
Al      13.73248399       6.46192570       4.92355585
Al      11.76857627       4.29430682       9.85485884
Al      11.75695469       6.46461085      12.30629397
Al      13.75690515       4.30514235      12.30471545
Al      13.74763940       6.43767736       9.84446641
Al      11.77074347       4.30404297      14.78824548
Al      11.78841058       6.44778084      17.24300845
Al      13.74678490       4.30575154      17.25119848
Al      13.74535390       6.45114223      14.77923347
Al      11.78275909       8.60252727      -0.00476555
Al      11.77674090      10.73374555       2.44919099
Al      13.75309384       8.59640026       2.44636157
Al      13.72385953      10.74503478      -0.00728894
Al      11.78192383       8.59225240       4.92546008
Al      11.77578199      10.73895212       7.37595869
Al      13.72872743       8.60485023       7.39237086
Al      13.75212754      10.75457267       4.92768338
Al      11.78773231       8.59604714       9.84330623
Al      11.75931036      10.75768001      12.31704242
Al      13.74311917       8.59754720      12.31238661
Al      13.71876282      10.75168680       9.85156152
Al      11.77380491       8.60196465      14.77393773
Al      11.77398316      10.75171508      17.24220041
Al      13.73917960       8.59600897      17.24244378
Al      13.73842081      10.75882098      14.79377987
Al      11.77172417      12.90041258       0.01401395
Al      11.78103371      15.06161697       2.46809569
Al      13.73415082      12.90475680       2.45766034
Al      13.74487605      15.06209501       0.00544655
Al      11.79044347      12.91712194       4.92116846
Al      11.78360763      15.03605829       7.38175760
Al      13.75315901      12.88499932       7.37695589
Al      13.74337874      15.05039811       4.94050871
Al      11.76865436      12.89875593       9.84514083
Al      11.77069571      15.03771797      12.31905359
Al      13.74663757      12.89677202      12.30738206
Al      13.74685231      15.05466645       9.85178761
Al      11.78231769      12.88467137      14.79613013
Al      11.78583282      15.03919647      17.23974549
Al      13.73728081      12.88887974      17.22201622
Al      13.72709961      15.03182401      14.78012043
