256
Lattice="26.600037156353363 0.0 0.0 0.0 23.916584970214195 0.0 0.0 0.0 19.981357757997426" Properties=species:S:1:pos:R:3 id=sample_001934 pbc="F F F"
Si       0.03083043       0.00320698      -0.00941857
Si       0.00087342       2.97442333       2.51878237
Si       3.34314422      -0.00767998       2.49299407
Si       3.32360985       3.00168908      -0.02287826
Si      -0.00041434      -0.00233363       5.00592508
Si       0.00077002       3.02024221       7.50297633
Si       3.31323361       0.00045668       7.45756911
Si       3.36111894       3.02067045       5.01696560
Si      -0.01551009      -0.01732007       9.99281173
Si      -0.04356049       2.97498474      12.48903832
Si       3.30186097       0.00592985      12.49641001
Si       3.33264338       3.00991299       9.98044683
Si       0.01837636       0.01009274      14.97659181
Si      -0.00691314       2.99777266      17.47714040
Si       3.35261023       0.01846897      17.48972456
Si       3.31509917       2.97072039      14.97898503
Si      -0.00542469       5.96279084      -0.00866318
Si      -0.00984332       8.96063213       2.56743824
Si       3.35051870       5.98445419       2.52774046
Si       3.32255197       8.99748117       0.00318224
Si       0.00299934       6.00761506       4.98491600
Si       0.03278338       8.96763448       7.49036660
Si       3.31793808       5.99919194       7.50440473
Si       3.32475402       8.96556158       5.00222637
Si      -0.00846700       5.98046694       9.98605498
Si       0.01143749       8.97439686      12.48828739
Si       3.33088152       5.94898474      12.50895506
Si       3.33662588       8.95712313       9.96561325
Si       0.02105442       5.99148776      14.99398318
Si      -0.01021249       8.93949067      17.47826130
Si       3.28085724       5.96774713      17.49611869
Si       3.31089034       8.97889410      14.97884837
Si       0.03442479      11.96089473      -0.00523096
Si       0.03121434      14.96488877       2.53557535
Si       3.33942038      11.94794349       2.51811894
Si       3.31813101      14.94609912       0.01234732
Si      -0.02742805      11.94570810       4.99276841
Si       0.00948157      14.91449757       7.50400980
Si       3.29184531      11.94227016       7.49230736
Si       3.34085961      14.91681085       4.97149405
Si       0.00719112      11.98171965      10.03733230
Si       0.00408302      14.94308463      12.48032797
Si       3.32208253      11.96448340      12.49366710
Si       3.32766551      14.94729172       9.99145939
Si       0.01805688      11.94327621      14.96178964
Si       0.00136916      14.95519785      17.46294694
Si       3.31760442      11.95223508      17.49045882
Si       3.31051016      14.95266568      14.95699374
Si      -0.00356210      17.95011929       0.01644636
Si      -0.01976761      20.91046716       2.47550833
Si       3.33207017      17.90834170       2.51515659
Si       3.32149868      20.92267100       0.03540404
Si      -0.00674561      17.95199229       4.98501053
Si      -0.00939152      20.91194759       7.50964523
Si       3.35142113      17.96007648       7.47652642
Si       3.30378443      20.94269747       4.96140793
Si      -0.00134942      17.89818099       9.96881137
Si      -0.00136965      20.92716991      12.50956924
Si       3.34299371      17.93141430      12.48988690
Si       3.32519323      20.90817209       9.96703688
Si      -0.00337649      17.94545785      14.99955671
Si      -0.00976627      20.93514591      17.45520604
Si       3.30930233      17.97495154      17.48576130
Si       3.32048232      20.91956919      14.96515003
Si       6.65615586       0.01492020       0.02181467
Si       6.63118265       3.00564824       2.50811762
Si       9.96846454       0.00590180       2.47224384
Si      10.01106725       3.02059062      -0.02354490
Si       6.62764167       0.00434339       4.98700936
Si       6.63315605       2.97653218       7.49716955
Si       9.99831696      -0.00784898       7.52820115
Si       9.98767297       3.00594668       4.95782721
Si       6.65836143      -0.00261166      10.01967389
Si       6.67048976       2.98001753      12.49414844
Si       9.97168715      -0.00406250      12.47304242
Si      10.00090730       3.00087025       9.98989792
Si       6.64045488       0.02433505      14.98234066
Si       6.61558166       3.01028161      17.47015423
Si       9.99261251      -0.00040248      17.48028348
Si       9.97550911       3.01572202      15.00605800
Si       6.63461014       5.96992943      -0.02362718
Si       6.64770896       8.94388802       2.50669074
Si       9.98095755       5.99120250       2.44432529
Si       9.98480297       8.97770299       0.01604240
Si       6.63221008       5.96681570       4.99868503
Si       6.66361335       8.98715399       7.48966536
Si       9.96207503       5.96820370       7.46726520
Si       9.94041754       9.01233612       4.97474331
Si       6.64711698       5.95510807       9.97517695
Si       6.66202764       8.97450603      12.51398273
Si       9.98108601       5.97149710      12.48651432
Si       9.97313351       8.98776633       9.97210408
Si       6.64536427       5.98779631      14.97704253
Si       6.63858823       8.94793573      17.49525450
Si       9.96483007       5.97724641      17.48015427
Si       9.96610669       8.95589578      14.98304554
Si       6.63488300      11.97118969       0.00163299
Si       6.65327030      14.95665372       2.49433325
Si       9.96936873      11.96127513       2.48205196
Si       9.99049251      14.97977089      -0.04269972
Si       6.67894445      11.96887179       5.00070881
Si       6.65297578      14.93293063       7.49651904
Si       9.99155989      11.95525603       7.48919567
Si       9.95422470      14.95543126       4.97845091
Si       6.65053544      11.97734924       9.99419890
Si       6.65164793      14.96442182      12.48209039
Si       9.96703887      11.95413705      12.45564474
Si       9.98350233      14.95328153       9.98645970
Si       6.63550094      11.94770846      14.97961124
Si       6.63227371      14.96227282      17.52933741
Si       9.98149079      11.94890069      17.48961054
Si       9.97246635      14.95824126      15.00616734
Si       6.67214016      17.93666673       0.01674250
Si       6.64895427      20.94516823       2.48755876
Si       9.96783008      17.93572950       2.50009079
Si       9.95163535      20.93444577      -0.03149224
Si       6.61492420      17.94666340       4.99754897
Si       6.63871211      20.90651489       7.48003163
Si       9.95347083      17.94973655       7.48731008
Si      10.00149151      20.91017472       4.99523681
Si       6.63347890      17.90333543      10.00142688
Si       6.65529538      20.92182990      12.48339257
Si      10.00769024      17.94529319      12.50311584
Si       9.95712032      20.93953006       9.99139062
Si       6.65454063      17.92491760      15.02401768
Si       6.66251448      20.91445477      17.46954898
Si       9.96479184      17.91482944      17.45743575
Si       9.98000529      20.94903332      14.96650946
Si      13.30833345       0.00585918       0.01413397
Si      13.32311555       3.01631531       2.50193093
Si      16.64396008      -0.01603728       2.48081215
Si      16.62833574       2.98618741      -0.00119789
Si      13.30950383      -0.00101846       4.98306838
Si      13.30496490       3.00770928       7.47256234
Si      16.65472479       0.01269675       7.51455166
Si      16.63292201       2.98764646       4.99023130
Si      13.30324838      -0.00112106       9.97625341
Si      13.28032921       3.01630058      12.49869657
Si      16.64148881       0.00491745      12.48269527
Si      16.65854732       3.00007502       9.99242296
Si      13.27822169       0.00673228      14.97482765
Si      13.29074742       2.96532115      17.49002131
Si      16.62665867       0.02946362      17.49068011
Si      16.61495179       3.00440526      14.97773479
Si      13.27837607       5.98368023      -0.02001474
Si      13.30740212       8.96566376       2.50617513
Si      16.58590211       5.96234866       2.49996519
Si      16.61466913       8.97020467       0.03299148
Si      13.31127117       6.01212925       4.96730851
Si      13.30320900       8.94560293       7.48688484
Si      16.61492310       5.98433797       7.48769746
Si      16.65370054       8.94391279       4.99906747
Si      13.28674446       5.96383658       9.98042835
Si      13.30434473       8.98061879      12.46986220
Si      16.63345816       5.98414157      12.49504514
Si      16.61577795       8.96237112      10.00524765
Si      13.29988758       5.99619788      14.99262810
Si      13.33148877       8.98823230      17.48409230
Si      16.63879813       5.99342795      17.49994478
Si      16.62005890       8.96419307      14.99516346
Si      13.29084115      11.96285270      -0.02883659
Si      13.29371962      14.95070975       2.49537213
Si      16.64093145      11.95836826       2.51432638
Si      16.62984761      14.93041653      -0.02346810
Si      13.30666246      11.92987493       5.01719947
Si      13.29177939      14.95152535       7.49580327
Si      16.62305323      11.93305682       7.48273122
Si      16.59073769      14.93588915       4.99894575
Si      13.30910455      11.93579922      10.02989897
Si      13.28001276      14.96033940      12.52822790
Si      16.64115476      11.98344244      12.48917495
Si      16.63333746      14.96188264      10.00200929
Si      13.29827626      11.95768292      15.01962983
Si      13.28229242      14.92901674      17.48346492
Si      16.64566979      11.93982367      17.47050670
Si      16.60419258      14.95971096      15.00574150
Si      13.27446438      17.95789693      -0.00618864
Si      13.29765654      20.92275506       2.47202766
Si      16.64622051      17.95784873       2.47737333
Si      16.64322061      20.93107275      -0.02543575
Si      13.31745762      17.95285369       4.99393337
Si      13.27717471      20.94916053       7.49209073
Si      16.62488885      17.94123407       7.50525086
Si      16.62784575      20.90282574       4.99242440
Si      13.29415595      17.93233981      10.00679907
Si      13.31373130      20.92188661      12.51353231
Si      16.61482416      17.97855558      12.50484891
Si      16.63018128      20.90543712       9.98339981
Si      13.32917594      17.93634127      14.98002210
Si      13.29161580      20.90428237      17.45135519
Si      16.60401853      17.91018249      17.47256005
Si      16.64427749      20.92827911      15.01214074
Si      19.93657749      -0.02085256       0.01939392
Si      19.96630896       2.98271468       2.48373200
Si      23.28349399       0.00869017       2.50155438
Si      23.27583830       2.99688431      -0.02890808
Si      19.96754307      -0.01038562       4.99318811
Si      19.94518657       2.96566812       7.49277640
Si      23.24183320       0.00075610       7.47838875
Si      23.25949379       2.99833857       4.97176509
Si      19.94703515      -0.00136817      10.00438025
Si      19.93864749       2.98121287      12.48039034
Si      23.25448682       0.02844387      12.45817352
Si      23.25189859       2.99967735       9.98254131
Si      19.93089444      -0.00516504      14.97722328
Si      19.96607241       2.98386014      17.49665493
Si      23.26587923      -0.00482721      17.50606956
Si      23.28008073       2.98476812      15.00399223
Si      19.96479901       6.03226758       0.00651182
Si      19.94449736       8.98270869       2.50889998
Si      23.28721213       6.00215509       2.50221784
Si      23.31766127       8.97620928      -0.01707500
Si      19.94255844       5.98491454       4.97423682
Si      19.95942630       9.01004890       7.49319111
Si      23.27397693       5.99959020       7.50971542
Si      23.26085825       8.97541571       4.97401479
Si      19.94554016       5.98004363       9.98624334
Si      19.94685145       8.97939101      12.50086221
Si      23.29691295       5.98857933      12.51964700
Si      23.26928957       8.97627415       9.95264053
Si      19.94912018       5.97519204      14.99720854
Si      19.97041491       8.99485451      17.48731016
Si      23.28200191       5.97550445      17.48118967
Si      23.27994689       8.96357202      15.00784446
Si      19.94325109      11.97572222      -0.00908520
Si      19.96527438      14.93973016       2.49748880
Si      23.26771485      11.95957163       2.50342641
Si      23.26093157      14.92619343      -0.01723275
Si      19.96216512      11.95111996       4.97086566
Si      19.93850332      14.94938283       7.50345557
Si      23.24646808      11.95150950       7.48738128
Si      23.25830845      14.96467007       5.00942841
Si      19.94533315      11.94873377      10.00695555
Si      19.98493371      14.92715700      12.48831397
Si      23.29201900      11.94693708      12.46236891
Si      23.24847646      14.93714627       9.97445308
Si      19.93902785      11.97992496      14.95851934
Si      19.94628278      14.93434413      17.45246286
Si      23.28062791      11.98714264      17.47103280
Si      23.28475261      14.93363395      14.95942135
Si      19.94878920      17.92212377      -0.01924978
Si      19.95540333      20.94529364       2.50339591
Si      23.25035880      17.95583619       2.47444449
Si      23.30315600      20.90809681      -0.01748341
Si      19.95387911      17.95015812       4.98431436
Si      19.96277828      20.91634253       7.51633662
Si      23.27822204      17.95020904       7.49328276
Si      23.28993167      20.96047264       5.01091012
Si      19.95206285      17.92070527      10.00290402
Si      19.98404282      20.90736543      12.47645097
Si      23.27532948      17.90797898      12.51596403
Si      23.24128806      20.91315561      10.02244440
Si      19.95648153      17.92419952      14.99846611
Si      19.95228402      20.91427493      17.47272602
Si      23.27763093      17.90347280      17.47513417
Si      23.28098136      20.93617880      14.97702426
