365
Lattice="65.63837258434029 0.0 0.0 0.0 65.63837258434029 0.0 0.0 0.0 65.63837258434029" Properties=species:S:1:pos:R:3 id=sample_000430 pbc="T T T"
Si      20.78401447      20.78565917      20.78145775
Si      22.14736189      22.12574077      22.15279563
Si      23.50885712      23.49727166      20.78338875
Si      24.86127663      24.85054612      22.16001815
Si      26.20534284      26.21301413      20.79144642
Si      27.57411376      27.57209381      22.14275197
Si      28.92851411      28.94473596      20.78299653
Si      30.28115886      30.29312003      22.14700346
Si      31.64078227      31.64776263      20.78906443
Si      33.01028190      33.00788414      22.15394764
Si      34.36035521      34.37987477      20.77238980
Si      35.72405516      35.72408305      22.13938538
Si      37.08441254      37.07166685      20.79506829
Si      38.41823157      38.44301639      22.14463199
Si      39.78191035      39.78930450      20.78521478
Si      41.15153218      41.14891036      22.14600526
Si      42.52133023      42.53137731      20.78464215
Si      23.50605770      20.77750789      23.50003336
Si      24.85582742      22.13539559      24.84030825
Si      26.22479906      23.51613354      23.50427957
Si      27.58388203      24.84736767      24.84720217
Si      28.92378185      26.19656196      23.50056062
Si      30.29470940      27.58027751      24.86927951
Si      31.63938978      28.92726590      23.50452874
Si      33.01410199      30.29771294      24.86775525
Si      34.36865663      31.64124590      23.48432620
Si      35.72015310      33.00981526      24.84732671
Si      37.07001934      34.34825080      23.49248733
Si      38.44572684      35.70656683      24.85913130
Si      39.79302977      37.07098918      23.49131403
Si      41.16512231      38.43611068      24.86317755
Si      42.52008084      39.79622986      23.49458791
Si      26.21559047      20.78555925      26.22189937
Si      27.57826159      22.14425460      27.58033450
Si      28.91976682      23.51208028      26.21352762
Si      30.29412784      24.86565530      27.56266089
Si      31.64200738      26.21005829      26.23389897
Si      33.01858471      27.56535769      27.57347635
Si      34.34430241      28.94438628      26.21858004
Si      35.73151522      30.29041345      27.57050027
Si      37.06300912      31.65511618      26.22893143
Si      38.43797838      33.00222021      27.56619482
Si      39.80083607      34.36043842      26.21750524
Si      41.13539314      35.71645949      27.58336598
Si      42.52334187      37.07691739      26.21271516
Si      43.85415381      38.42990717      27.55970521
Si      28.92797257      20.79663469      28.93730865
Si      30.29152431      22.13315722      30.28099844
Si      31.63798741      23.49631756      28.92796926
Si      32.98812448      24.84925000      30.28529288
Si      34.35100965      26.21934881      28.94889615
Si      35.72353873      27.57472580      30.29603408
Si      37.08800050      28.92788191      28.93099468
Si      38.42190808      30.28969043      30.29478938
Si      39.79229755      31.64377832      28.92271991
Si      41.14454363      33.00279225      30.27782622
Si      42.50574987      34.34449402      28.93517340
Si      43.86111995      35.71336666      30.30135973
Si      45.22031929      37.06969782      28.92545972
Si      31.65574673      20.77426715      31.65847694
Si      33.00230544      22.13646442      33.00359448
Si      34.35153836      23.50227546      31.64295411
Si      35.69857524      24.87871883      33.00155613
Si      37.09146469      26.20174526      31.64225502
Si      38.44328029      27.59773949      33.00433111
Si      39.78621340      28.92476597      31.62459270
Si      41.16687224      30.27510812      32.98756892
Si      42.49615898      31.65420176      31.65398481
Si      43.84772666      32.98991783      32.99138502
Si      45.21822631      34.36548745      31.66900230
Si      34.34475916      20.78540713      34.35826444
Si      35.72634343      22.12752204      35.70341402
Si      37.06190780      23.49934402      34.37165658
Si      38.44201629      24.87009204      35.73627004
Si      39.80979244      26.19667643      34.36466416
Si      41.16436627      27.56938207      35.71582221
Si      42.50200438      28.94122144      34.35159556
Si      43.87893146      30.28691204      35.71444051
Si      45.21634032      31.66413396      34.34977351
Si      37.07400970      20.78231428      37.07031008
Si      38.41246030      22.13637052      38.45383697
Si      39.79091878      23.51511310      37.07807019
Si      41.16599020      24.86397856      38.43877412
Si      42.52115378      26.23134626      37.07977398
Si      43.87223764      27.58750555      38.43738030
Si      45.22583791      28.94303626      37.07015455
Si      39.78988918      20.77252163      39.79202750
Si      41.13545910      22.14122240      41.17187346
Si      42.51962421      23.50583194      39.80470080
Si      42.51726070      20.78768390      42.49655135
Si      20.78213588      23.50751439      23.50479238
Si      22.14615862      24.84745647      24.87788859
Si      23.48955046      26.18950812      23.49831644
Si      24.85119252      27.56842760      24.86179425
Si      26.21800883      28.93254943      23.48661678
Si      27.56847338      30.28340652      24.86778785
Si      28.92781264      31.64350845      23.49839838
Si      30.26820771      32.99627559      24.86374556
Si      31.61774634      34.35557964      23.51069414
Si      33.01830543      35.71794061      24.86094074
Si      34.35611018      37.07840251      23.50903581
Si      35.72752936      38.44687981      24.85150700
Si      37.09259674      39.79455867      23.48920668
Si      38.43594124      41.15373385      24.87169198
Si      39.77677143      42.49636700      23.48050074
Si      23.48440174      23.49374632      26.21203336
Si      24.85637002      24.87887602      27.54571123
Si      26.20764875      26.21222557      26.20622781
Si      27.57880167      27.57989484      27.59153182
Si      28.95488449      28.93612884      26.21923447
Si      30.28226638      30.29746188      27.55712802
Si      31.63267594      31.64714235      26.21932783
Si      33.01420894      32.99129356      27.57880220
Si      34.36608862      34.36909600      26.23572970
Si      35.71003076      35.71859730      27.57203678
Si      37.07375166      37.07542280      26.19885975
Si      38.43053992      38.43514945      27.58682974
Si      39.79443676      39.79874662      26.20992219
Si      41.14372394      41.16723741      27.58170008
Si      26.21791518      23.51718517      28.93387598
Si      27.57620760      24.85168641      30.29478392
Si      28.94118547      26.23063578      28.92232841
Si      30.30088223      27.58628754      30.28772264
Si      31.66323302      28.91657234      28.91314348
Si      32.99285319      30.30218101      30.29964732
Si      34.35678074      31.66070928      28.93014572
Si      35.71159029      33.00977013      30.30393609
Si      37.08715316      34.36342134      28.94635335
Si      38.41701346      35.70454072      30.27143627
Si      39.78348195      37.08766257      28.91021653
Si      41.17101207      38.43088631      30.26816825
Si      42.50209601      39.79664043      28.91847583
Si      28.93037334      23.49259879      31.64922115
Si      30.28468766      24.85178778      33.01169032
Si      31.64238809      26.21468584      31.63168862
Si      33.00976543      27.56965945      33.00139075
Si      34.36552806      28.91640553      31.63875722
Si      35.72340922      30.30797579      33.00153276
Si      37.09012847      31.63375256      31.65540300
Si      38.41849927      33.01402015      33.00423078
Si      39.82371537      34.35417896      31.63412413
Si      41.15655307      35.70826133      32.99625691
Si      42.51085720      37.07421664      31.63806349
Si      31.63411368      23.49390518      34.35054303
Si      33.01507913      24.86626271      35.71762022
Si      34.37143545      26.19525647      34.37357076
Si      35.72829825      27.56982354      35.71432619
Si      37.08426888      28.93290991      34.34609754
Si      38.42781982      30.27730632      35.72049925
Si      39.78897118      31.64505074      34.38449448
Si      41.14544856      32.99834445      35.71604814
Si      42.49843908      34.35736811      34.37328398
Si      34.37152458      23.48683735      37.09314649
Si      35.71819693      24.86205147      38.44308255
Si      37.08212132      26.22264285      37.08398921
Si      38.43657416      27.58669864      38.43146078
Si      39.79869436      28.93767852      37.07673616
Si      41.13224716      30.28409762      38.43754415
Si      42.49431895      31.65362215      37.07857367
Si      37.07009747      23.50578282      39.80828010
Si      38.43649522      24.84186564      41.15138902
Si      39.79998261      26.21927226      39.79479549
Si      41.14784664      27.56344752      41.17459821
Si      42.50236619      28.92833263      39.81778639
Si      39.80021902      23.50117107      42.51388795
Si      20.78040979      26.21014234      26.23894686
Si      22.15133242      27.57400973      27.57065473
Si      23.50008784      28.94417009      26.21251173
Si      24.85507595      30.28685032      27.56807111
Si      26.21963712      31.65773893      26.21989670
Si      27.55790856      32.98721007      27.58237334
Si      28.94740726      34.36252830      26.21198682
Si      30.28360214      35.71886419      27.58233172
Si      31.65930916      37.06794573      26.21180199
Si      32.99813106      38.43971551      27.56089553
Si      34.36168277      39.79576373      26.21719791
Si      35.70033904      41.14155286      27.57284177
Si      37.07153702      42.49927089      26.19779241
Si      38.44887147      43.86667387      27.56172190
Si      23.49750986      26.22203382      28.94551674
Si      24.86686925      27.57902303      30.26672747
Si      26.20909992      28.93290371      28.92900525
Si      27.57694995      30.29143801      30.28882672
Si      28.91696464      31.64442286      28.93425928
Si      30.29485743      33.00089126      30.30410703
Si      31.63519602      34.38322539      28.93856137
Si      33.00620445      35.70269668      30.28151989
Si      34.35053374      37.05958427      28.92556539
Si      35.71952921      38.42703154      30.28312537
Si      37.07909663      39.78723626      28.91561554
Si      38.44965155      41.14201965      30.30869615
Si      39.79060666      42.50126819      28.93053868
Si      26.20786572      26.21210417      31.65678549
Si      27.56240132      27.59016190      32.99914816
Si      28.93178239      28.94151786      31.65612398
Si      30.28312747      30.30320955      32.99841246
Si      31.64347731      31.64531187      31.63657043
Si      33.00137964      33.00931047      32.99797409
Si      34.35444139      34.36749951      31.64699107
Si      35.70910091      35.71906295      33.01792620
Si      37.08375632      37.07806094      31.64205432
Si      38.45439609      38.42036674      33.01177488
Si      39.80927439      39.80650433      31.63718553
Si      28.93339733      26.23932399      34.36973610
Si      30.29254337      27.56665812      35.73431780
Si      31.65481671      28.94246805      34.38403764
Si      33.00962759      30.28052021      35.71739239
Si      34.37327437      31.64514518      34.35266792
Si      35.73540128      33.00649152      35.72685997
Si      37.06089916      34.38360025      34.38838235
Si      38.44744465      35.72486408      35.72104929
Si      39.79623756      37.08265213      34.36385677
Si      41.13853782      38.41410332      35.70824950
Si      31.64544566      26.22184475      37.08338157
Si      32.99307701      27.58387074      38.44916764
Si      34.37049566      28.92605961      37.07387694
Si      35.72349459      30.29408902      38.43963530
Si      37.09302933      31.65335470      37.07189225
Si      38.41980595      32.99178096      38.42892318
Si      39.80513569      34.37993064      37.10177733
Si      41.13890952      35.70399172      38.43132286
Si      34.35623609      26.21149152      39.78248849
Si      35.71866989      27.58104471      41.16723684
Si      37.06854576      28.92818174      39.79348931
Si      38.42688550      30.29540184      41.15718647
Si      39.79558027      31.64125456      39.80350076
Si      37.08181886      26.19866354      42.50073630
Si      38.44398725      27.55356846      43.86576207
Si      39.80277063      28.93050453      42.49367119
Si      20.79069697      28.94242469      28.92240545
Si      22.15884513      30.28521137      30.29478934
Si      23.50424373      31.65847739      28.94593415
Si      24.84598243      33.01325803      30.29553307
Si      26.20699467      34.36568438      28.92049072
Si      27.57635683      35.72050660      30.30035815
Si      28.92923486      37.07579984      28.94761608
Si      30.29443558      38.42414019      30.30108480
Si      31.65366914      39.78981173      28.93799196
Si      33.01890067      41.16426354      30.30050268
Si      34.35368672      42.52792153      28.95253733
Si      35.70838385      43.86072110      30.29570020
Si      37.07340675      45.22144602      28.94964385
Si      23.51441637      28.93232173      31.64999798
Si      24.85939380      30.28302687      33.00055924
Si      26.20897650      31.64294259      31.64103688
Si      27.56502284      32.99498971      33.00275202
Si      28.94006796      34.37589925      31.67135679
Si      30.29708341      35.72453585      33.00549741
Si      31.66439843      37.08147004      31.64747388
Si      33.00748805      38.41050665      32.99775624
Si      34.38608779      39.79316382      31.64249045
Si      35.71101666      41.16124336      33.00648245
Si      37.06862044      42.52294819      31.65488842
Si      26.21526387      28.94226427      34.34937202
Si      27.56065600      30.29667288      35.71732763
Si      28.92148021      31.65972141      34.35613445
Si      30.28763323      33.01742741      35.71862473
Si      31.64509755      34.37486629      34.35774695
Si      32.99302607      35.71637884      35.70686129
Si      34.36147978      37.06342221      34.36314228
Si      35.73004336      38.42570587      35.73835625
Si      37.09769631      39.79992100      34.36565703
Si      38.44556803      41.16287263      35.73203715
Si      28.92761881      28.94264697      37.07631501
Si      30.29744619      30.29166073      38.44118885
Si      31.62408965      31.64524526      37.06792350
Si      32.99734669      32.99690641      38.43640346
Si      34.34924497      34.38543074      37.06291135
Si      35.73101799      35.72116440      38.41314387
Si      37.09156380      37.08038264      37.07742993
Si      38.42393030      38.42672017      38.41627105
Si      31.64228153      28.93742855      39.80699579
Si      33.01272285      30.28964818      41.15630610
Si      34.35780895      31.65963467      39.80964126
Si      35.71507979      32.98997495      41.14151332
Si      37.08489408      34.37314400      39.79948556
Si      38.43591211      35.69751519      41.15827481
Si      34.35262769      28.94154045      42.50200122
Si      35.71198901      30.30010804      43.87954593
Si      37.07820138      31.65304930      42.50228926
Si      37.06400967      28.94485460      45.21228873
Si      20.79713559      31.65979477      31.64403816
Si      22.14157556      33.00101862      32.98756320
Si      23.49711271      34.35963054      31.65363418
Si      24.85147832      35.71101965      32.99739587
Si      26.20961672      37.08526171      31.65754482
Si      27.58783599      38.43675234      32.99327302
Si      28.94676698      39.80066733      31.65649537
Si      30.29698349      41.13893139      33.00705587
Si      31.65646081      42.53094708      31.64046180
Si      33.00280162      43.85772968      33.00671498
Si      34.37370392      45.21459164      31.64860009
Si      23.49912051      31.65675946      34.36571708
Si      24.85517505      32.99982627      35.69878983
Si      26.21345949      34.34331300      34.35696900
Si      27.58274620      35.72330959      35.72102641
Si      28.92154232      37.08597064      34.35990494
Si      30.27399747      38.43922422      35.72649330
Si      31.63909739      39.79584237      34.35566239
Si      33.00693415      41.14300174      35.72393594
Si      34.34907857      42.51758626      34.35063471
Si      26.21777795      31.65805507      37.08949592
Si      27.58235448      33.01662762      38.42120022
Si      28.92670130      34.37731542      37.07106457
Si      30.30064302      35.72806562      38.42647444
Si      31.63524708      37.08305811      37.11194475
Si      33.00583440      38.41473956      38.44414406
Si      34.35632553      39.81128201      37.08043860
Si      35.69964559      41.15647646      38.44351265
Si      28.91981966      31.65480151      39.79387385
Si      30.28277040      32.99847185      41.15524681
Si      31.65310239      34.34814940      39.78196640
Si      33.01109842      35.72526538      41.13883541
Si      34.36811605      37.07637776      39.78057168
Si      35.71452772      38.43873809      41.14762811
Si      31.65054115      31.64972680      42.50776878
Si      33.00670107      33.00303589      43.87156592
Si      34.36946557      34.36439661      42.50755729
Si      34.36667780      31.65109444      45.22346519
Si      20.79588333      34.36254565      34.36726671
Si      22.11674450      35.70255903      35.73490062
Si      23.50277720      37.07836303      34.36607209
Si      24.85553449      38.42120027      35.72984565
Si      26.22265696      39.79368785      34.34301747
Si      27.55968402      41.15995343      35.75455137
Si      28.95147098      42.49098228      34.37626596
Si      30.27586033      43.88292282      35.71894854
Si      31.65943171      45.22198603      34.35398268
Si      23.49557061      34.35802459      37.07128937
Si      24.85389784      35.71223160      38.43268330
Si      26.20688219      37.07700362      37.07927150
Si      27.57446257      38.43181768      38.43738655
Si      28.93497688      39.79122335      37.07894622
Si      30.28934264      41.14117521      38.43983786
Si      31.65198912      42.52712757      37.07324136
Si      26.21624170      34.36891719      39.79053125
Si      27.57742468      35.71949636      41.17666257
Si      28.92787499      37.08694459      39.79365765
Si      30.28305961      38.43806762      41.14359049
Si      31.66613462      39.79212148      39.79070492
Si      28.94593498      34.35678998      42.48805704
Si      30.28495347      35.72186600      43.87388499
Si      31.64958344      37.08256591      42.50826625
Si      31.63495942      34.37000963      45.23312506
Si      20.78493062      37.06872837      37.06942932
Si      22.13707490      38.44548013      38.44536955
Si      23.50344755      39.78189550      37.08322645
Si      24.85026823      41.15286507      38.44116009
Si      26.22209308      42.50536383      37.08160903
Si      27.57634264      43.86644197      38.44268645
Si      28.92798555      45.21617517      37.08069721
Si      23.49545559      37.08843646      39.78886328
Si      24.86335906      38.44874071      41.14735179
Si      26.19735940      39.80112468      39.78905983
Si      27.56920977      41.12787616      41.15496472
Si      28.92805838      42.49914755      39.79090802
Si      26.23244905      37.08706858      42.51173809
Si      27.57402811      38.43875893      43.85794073
Si      28.92740913      39.77985896      42.50047303
Si      28.93498592      37.07835572      45.22511230
Si      20.77300777      39.80010993      39.80208307
Si      22.14658027      41.15550683      41.14752440
Si      23.51026669      42.52625511      39.79391967
Si      23.50411000      39.80002976      42.51521300
Si      20.77022707      42.50129782      42.52610380
