621
Lattice="66.65412182905291 0.0 0.0 0.0 66.65412182905291 0.0 0.0 0.0 66.65412182905291" Properties=species:S:1:pos:R:3 id=sample_001848 pbc="T T T"
Cu      21.05528630      21.04552382      21.04122992
Cu      22.86061015      22.87526261      21.06313810
Cu      24.67254901      24.67910703      21.05418097
Cu      26.47427396      26.47385898      21.05803022
Cu      28.28031128      28.30718837      21.06451221
Cu      30.07852037      30.09261210      21.05710453
Cu      31.90023798      31.89893014      21.04610379
Cu      33.71246878      33.70825897      21.05848051
Cu      35.50656784      35.50910378      21.06146547
Cu      37.33217980      37.32121693      21.05351905
Cu      39.13899871      39.13836161      21.07150529
Cu      40.92948472      40.92000302      21.08323808
Cu      42.73907882      42.76454565      21.05616909
Cu      22.84240425      21.06312360      22.85792314
Cu      24.66438374      22.85154740      22.85536777
Cu      26.47868774      24.68042650      22.86864582
Cu      28.27587848      26.48083185      22.84645595
Cu      30.09490242      28.29721917      22.86380157
Cu      31.92035235      30.09410384      22.86136968
Cu      33.69499412      31.90845567      22.85543249
Cu      35.52081437      33.70136223      22.86040213
Cu      37.33024245      35.51709070      22.86328851
Cu      39.12599126      37.32752976      22.84034460
Cu      40.94069307      39.12027290      22.84792746
Cu      42.74090479      40.96816316      22.85238126
Cu      24.65694903      21.05359376      24.67499267
Cu      26.48754127      22.86227624      24.66445653
Cu      28.29432491      24.67097490      24.66991179
Cu      30.08829718      26.47788040      24.68491897
Cu      31.90305697      28.28423419      24.67315682
Cu      33.70612176      30.09312217      24.67794578
Cu      35.49598282      31.92147747      24.67548715
Cu      37.31273280      33.70584328      24.67972258
Cu      39.13161793      35.52159824      24.65365790
Cu      40.91246384      37.31966242      24.65762830
Cu      42.76711807      39.12957715      24.66974838
Cu      44.57757639      40.93521591      24.67724313
Cu      26.46337979      21.05127158      26.47804296
Cu      28.29900803      22.86336702      26.47980375
Cu      30.06721505      24.65920520      26.48341239
Cu      31.88428313      26.48015035      26.46594942
Cu      33.71105628      28.28762086      26.47607980
Cu      35.50742620      30.10295087      26.45887853
Cu      37.33575620      31.90387956      26.48133022
Cu      39.13549240      33.71809539      26.48111190
Cu      40.94849326      35.51733526      26.46709875
Cu      42.75316355      37.31713479      26.48732264
Cu      44.54535572      39.11950390      26.46790116
Cu      28.30427225      21.06045815      28.29053164
Cu      30.09873365      22.85482345      28.28478220
Cu      31.91686975      24.66877927      28.30142324
Cu      33.70698418      26.48347746      28.27902550
Cu      35.51721880      28.28908411      28.29577425
Cu      37.31646419      30.08818509      28.28463117
Cu      39.13712338      31.90207874      28.27599077
Cu      40.92220714      33.70250180      28.29215295
Cu      42.74775395      35.52029077      28.28900951
Cu      44.54992446      37.32849313      28.28681869
Cu      30.10375657      21.05785530      30.11467114
Cu      31.88871603      22.86800859      30.10022528
Cu      33.73014776      24.67491779      30.09541884
Cu      35.51150026      26.49040978      30.09115039
Cu      37.32330239      28.27922003      30.09478149
Cu      39.13422494      30.09141573      30.09332507
Cu      40.93877608      31.88486965      30.08787750
Cu      42.74373070      33.72105439      30.10966531
Cu      44.58172760      35.50841062      30.09960356
Cu      31.89449398      21.05506190      31.89879883
Cu      33.70167153      22.87652201      31.89953139
Cu      35.54079614      24.66893172      31.88845948
Cu      37.30963722      26.48328603      31.90813754
Cu      39.14340205      28.28979238      31.90147761
Cu      40.92341223      30.09212356      31.91333030
Cu      42.75673940      31.88983166      31.90873255
Cu      44.54115854      33.71309348      31.89376338
Cu      46.36353432      35.51099720      31.90288894
Cu      33.69720934      21.05488012      33.70388627
Cu      35.52034593      22.84894798      33.71305297
Cu      37.33698297      24.67574943      33.71147158
Cu      39.13950729      26.47445282      33.70224749
Cu      40.92438963      28.27726578      33.70339346
Cu      42.75710920      30.10453144      33.69668022
Cu      44.56680426      31.89481253      33.70333060
Cu      46.35665420      33.69741775      33.71385246
Cu      35.51613545      21.05200820      35.50479550
Cu      37.32606977      22.85883066      35.52611974
Cu      39.12691113      24.67883663      35.50705876
Cu      40.94467611      26.46570669      35.52122775
Cu      42.73837515      28.28494692      35.50086556
Cu      44.57135356      30.10282443      35.52129001
Cu      46.35897761      31.92802846      35.52656672
Cu      37.32103799      21.05691448      37.32518957
Cu      39.11409737      22.86236956      37.33608397
Cu      40.92745283      24.66677658      37.33306710
Cu      42.73309671      26.46383983      37.32267985
Cu      44.55470081      28.28473381      37.32913608
Cu      39.14155828      21.06753974      39.13451036
Cu      40.93854535      22.85332261      39.13988399
Cu      42.72819561      24.67092154      39.15100076
Cu      44.53587761      26.48761797      39.12659924
Cu      40.93419650      21.05648710      40.95672129
Cu      42.73800542      22.85075295      40.91903758
Cu      44.55901651      24.66754070      40.93138356
Cu      42.71739489      21.04011516      42.73555410
Cu      21.05695622      22.87576987      22.88262738
Cu      22.87008222      24.67279976      22.87653554
Cu      24.65877598      26.46739372      22.86575755
Cu      26.47379717      28.26490179      22.86783978
Cu      28.28782962      30.08829562      22.86103880
Cu      30.09485425      31.90072274      22.87664559
Cu      31.90364845      33.72172558      22.86639574
Cu      33.69294443      35.53003338      22.85949658
Cu      35.52596943      37.30913419      22.84667748
Cu      37.32559523      39.11388808      22.84914361
Cu      39.10953118      40.94143046      22.84900592
Cu      40.94359879      42.74284413      22.87088407
Cu      22.86917054      22.84474355      24.68888281
Cu      24.67741851      24.66135553      24.68366228
Cu      26.47428954      26.48666741      24.67767082
Cu      28.28542033      28.29187801      24.66473598
Cu      30.09837050      30.10111898      24.67420346
Cu      31.88812376      31.90440338      24.68056182
Cu      33.70936952      33.69287794      24.66271849
Cu      35.50238384      35.52581499      24.67888331
Cu      37.32480652      37.33015362      24.67015722
Cu      39.12684857      39.13095739      24.67091597
Cu      40.92981806      40.92299182      24.67918168
Cu      42.76005350      42.75464206      24.68201893
Cu      24.66575230      22.85268337      26.48286079
Cu      26.47461966      24.67976584      26.48727537
Cu      28.31455163      26.50046506      26.47438268
Cu      30.10007703      28.27805449      26.47096686
Cu      31.89678333      30.10919862      26.46679833
Cu      33.71085681      31.90274140      26.46937252
Cu      35.51990235      33.71439276      26.48888323
Cu      37.34566601      35.50483027      26.48754144
Cu      39.13496562      37.34228241      26.46985202
Cu      40.93738740      39.13826329      26.46625590
Cu      42.75504475      40.93562856      26.49749061
Cu      26.47189194      22.86836148      28.28540514
Cu      28.29209553      24.68528172      28.28345094
Cu      30.08789348      26.49747593      28.27567129
Cu      31.89277586      28.27185098      28.29596204
Cu      33.69798408      30.10799467      28.26760716
Cu      35.51370612      31.91385522      28.27159003
Cu      37.33344285      33.70426388      28.30151864
Cu      39.12649702      35.51642666      28.28389304
Cu      40.93425223      37.32436202      28.28246189
Cu      42.73852876      39.13048837      28.28920599
Cu      28.28188133      22.85448304      30.09840392
Cu      30.09429709      24.66880043      30.08860277
Cu      31.89354582      26.48699897      30.09745049
Cu      33.71972147      28.30371313      30.08444322
Cu      35.50176431      30.08463238      30.12004994
Cu      37.32487431      31.90494038      30.08909240
Cu      39.11943692      33.71219200      30.10405884
Cu      40.94138662      35.50782823      30.09185623
Cu      42.74935164      37.31127060      30.11192999
Cu      44.56385377      39.13595713      30.09155372
Cu      30.09475853      22.88900601      31.90890935
Cu      31.87653531      24.67553468      31.90706370
Cu      33.70442128      26.47372356      31.90356637
Cu      35.51548597      28.28215688      31.90912708
Cu      37.31147678      30.10052637      31.89271569
Cu      39.11614193      31.88218111      31.90865176
Cu      40.93195985      33.69158151      31.89583118
Cu      42.75335286      35.51116124      31.90144588
Cu      44.56212695      37.33047818      31.90055455
Cu      31.90687131      22.85303718      33.72268311
Cu      33.69518585      24.68194487      33.70460652
Cu      35.52510117      26.49086287      33.68654075
Cu      37.32629738      28.28410507      33.71783190
Cu      39.11338212      30.11202878      33.71021685
Cu      40.94348666      31.91030328      33.71235315
Cu      42.73827238      33.69414266      33.72051150
Cu      44.53015530      35.51569299      33.71145470
Cu      33.70641776      22.85574761      35.50344758
Cu      35.51878991      24.67426784      35.50287514
Cu      37.32441384      26.48685284      35.53514332
Cu      39.14058521      28.28533868      35.51608914
Cu      40.95517518      30.08874319      35.51789889
Cu      42.72997233      31.90263229      35.52681160
Cu      44.53335122      33.72259484      35.52366631
Cu      35.50515286      22.85701859      37.32909455
Cu      37.32989973      24.67071007      37.32552497
Cu      39.11175737      26.47471789      37.30355641
Cu      40.92668056      28.29277144      37.31863410
Cu      42.77670394      30.08026698      37.30475671
Cu      44.54300137      31.90833951      37.33185623
Cu      37.33119905      22.86437034      39.11143141
Cu      39.13219573      24.69660578      39.13842249
Cu      40.94199466      26.47979146      39.13005786
Cu      42.73934842      28.28089823      39.13003534
Cu      44.55103306      30.07589156      39.13199101
Cu      39.12414620      22.84856776      40.94262078
Cu      40.92837096      24.66365520      40.93798286
Cu      42.73736400      26.47228743      40.94030996
Cu      40.93934143      22.86044420      42.73905485
Cu      42.73785097      24.67444126      42.76660476
Cu      21.05607683      24.66664668      24.67539755
Cu      22.87162876      26.46407403      24.66709115
Cu      24.67334693      28.28277224      24.66608616
Cu      26.47945580      30.10020482      24.66795178
Cu      28.29227277      31.89139002      24.66148028
Cu      30.09585102      33.70235935      24.67770242
Cu      31.90152885      35.52406478      24.67304501
Cu      33.70530470      37.32346226      24.67618677
Cu      35.51052731      39.12292427      24.66367956
Cu      37.31376828      40.95159526      24.68452018
Cu      39.14258474      42.75441871      24.66610645
Cu      40.94088202      44.54043703      24.66072917
Cu      22.86399783      24.67765670      26.46870673
Cu      24.67876066      26.47276248      26.48066885
Cu      26.48223091      28.29394795      26.47068268
Cu      28.28105655      30.08352439      26.48120162
Cu      30.09241553      31.89629421      26.46920748
Cu      31.90295660      33.71907526      26.47036027
Cu      33.70404515      35.53718419      26.47534424
Cu      35.52834266      37.32913548      26.47633147
Cu      37.33471130      39.13812382      26.48890246
Cu      39.13465648      40.94670412      26.47159899
Cu      40.94674517      42.74589468      26.47110463
Cu      24.68932990      24.66229025      28.28746556
Cu      26.46951323      26.48674350      28.29086272
Cu      28.30735326      28.27758276      28.28237458
Cu      30.11316843      30.09689571      28.29159206
Cu      31.90396398      31.88745587      28.26630847
Cu      33.70212894      33.71161976      28.28733807
Cu      35.51971289      35.51796251      28.28719844
Cu      37.33223583      37.32269066      28.29099020
Cu      39.12995967      39.12825940      28.28877816
Cu      40.93733445      40.91621488      28.28415415
Cu      26.48680415      24.68930013      30.08397204
Cu      28.29414998      26.49111426      30.08719672
Cu      30.09224433      28.28694151      30.08968348
Cu      31.88886630      30.10580990      30.10507947
Cu      33.70529467      31.89840176      30.08237549
Cu      35.51485213      33.70546713      30.09494099
Cu      37.30464489      35.51665350      30.08746294
Cu      39.14143004      37.32555626      30.09773052
Cu      40.92572661      39.13204551      30.09058466
Cu      42.73212051      40.94789054      30.09259436
Cu      28.29707427      24.65524338      31.91495819
Cu      30.09647473      26.47297049      31.90499911
Cu      31.89722288      28.29469053      31.89197331
Cu      33.70744367      30.07644209      31.92284754
Cu      35.52367882      31.89575094      31.91595693
Cu      37.33213263      33.72797685      31.92723010
Cu      39.11222052      35.53246120      31.90178278
Cu      40.93809510      37.31927329      31.91416548
Cu      42.74242087      39.12159650      31.90334388
Cu      30.07706595      24.69187955      33.70349905
Cu      31.88276041      26.46153271      33.69839389
Cu      33.71996224      28.29133829      33.70018394
Cu      35.51012155      30.11442624      33.70367136
Cu      37.35105736      31.91050596      33.71629967
Cu      39.12981029      33.71385295      33.71028185
Cu      40.93413064      35.52017124      33.72329620
Cu      42.76026083      37.32039000      33.70445438
Cu      31.90449253      24.65172454      35.51470384
Cu      33.70580441      26.48098915      35.51443452
Cu      35.49930113      28.28001709      35.50816911
Cu      37.32832555      30.09067186      35.51239502
Cu      39.12802536      31.90800593      35.50670069
Cu      40.94157253      33.72114235      35.51609155
Cu      42.74314467      35.51813342      35.51508728
Cu      33.68962391      24.66410107      37.31907039
Cu      35.51867572      26.49195015      37.33098902
Cu      37.32333511      28.28662806      37.32285516
Cu      39.13632787      30.09533009      37.31390295
Cu      40.95748072      31.91701400      37.30445634
Cu      42.75482379      33.71532512      37.33196383
Cu      35.52412714      24.68125901      39.14209373
Cu      37.31821890      26.46973972      39.12521378
Cu      39.12862115      28.29770909      39.13766891
Cu      40.94001809      30.09120196      39.13811730
Cu      42.74139063      31.90898013      39.13962298
Cu      37.34167024      24.66885825      40.94219725
Cu      39.13472884      26.50372767      40.93658346
Cu      40.95084919      28.28032442      40.93955795
Cu      42.74535545      30.09642013      40.94640269
Cu      39.13794995      24.66267582      42.75383443
Cu      40.93964069      26.48723938      42.71792841
Cu      40.93733922      24.68708753      44.56777683
Cu      21.05237561      26.47548674      26.48936625
Cu      22.86643598      28.28566246      26.47550411
Cu      24.66751820      30.09359874      26.49071104
Cu      26.49774613      31.90237785      26.48500921
Cu      28.27450996      33.70088269      26.47550886
Cu      30.09219242      35.54313192      26.46796823
Cu      31.89953613      37.31393073      26.47647167
Cu      33.69629979      39.12455172      26.47254408
Cu      35.52309460      40.93911446      26.47608955
Cu      37.32996486      42.75504398      26.49787738
Cu      39.13151037      44.56689519      26.47179505
Cu      22.85243303      26.48235784      28.27073496
Cu      24.69367899      28.29162226      28.28066011
Cu      26.48358131      30.07938970      28.27626459
Cu      28.28814465      31.90413323      28.28100350
Cu      30.10060576      33.69560052      28.27137000
Cu      31.90656501      35.52657723      28.28318078
Cu      33.70388658      37.32183602      28.27418360
Cu      35.51146667      39.12366324      28.28707340
Cu      37.32002198      40.93630117      28.29540321
Cu      39.13615133      42.74114981      28.29113791
Cu      24.68986915      26.48889327      30.09861930
Cu      26.48091416      28.28395368      30.10121259
Cu      28.31089162      30.10615091      30.08664780
Cu      30.08269977      31.89910450      30.09064372
Cu      31.89785284      33.72070299      30.08958677
Cu      33.69988793      35.52229537      30.09570993
Cu      35.52994322      37.31628446      30.09601254
Cu      37.31865321      39.11516545      30.09212343
Cu      39.14213016      40.94236569      30.09183863
Cu      40.93361167      42.76283731      30.09254288
Cu      26.48024908      26.48965511      31.90933690
Cu      28.28531729      28.26834736      31.89133735
Cu      30.08858418      30.09748490      31.91402001
Cu      31.90552799      31.90375110      31.90838555
Cu      33.71147969      33.70873867      31.90830946
Cu      35.51406822      35.51546055      31.89724622
Cu      37.32583006      37.33147810      31.91653073
Cu      39.13590218      39.14022437      31.90267508
Cu      40.94811050      40.93634896      31.91188992
Cu      28.27565260      26.47532819      33.70161668
Cu      30.07851558      28.28904395      33.70348658
Cu      31.89118348      30.09625236      33.70739426
Cu      33.71523374      31.90318268      33.70669436
Cu      35.49133081      33.71735494      33.71344185
Cu      37.31647526      35.52985308      33.70474093
Cu      39.12590470      37.32647744      33.72233024
Cu      40.92936796      39.13408006      33.70655926
Cu      30.08925742      26.47389069      35.50990695
Cu      31.90730699      28.30129153      35.51831151
Cu      33.72351567      30.09865278      35.52386586
Cu      35.51697379      31.90395697      35.51780372
Cu      37.33751002      33.70142676      35.50549816
Cu      39.12708341      35.50376153      35.52878534
Cu      40.94364732      37.32706711      35.50585825
Cu      31.89740679      26.48455111      37.31353579
Cu      33.70736923      28.30616164      37.32473196
Cu      35.51405252      30.08492525      37.32335918
Cu      37.33827166      31.89960104      37.32907238
Cu      39.14084379      33.72103736      37.32762484
Cu      40.93168638      35.50653009      37.32599180
Cu      33.69704814      26.46926279      39.14767019
Cu      35.51288970      28.28022281      39.14075049
Cu      37.31517041      30.08961042      39.12535024
Cu      39.11949686      31.89580807      39.14303601
Cu      40.92198916      33.71309163      39.14689705
Cu      35.51431045      26.49375860      40.95011189
Cu      37.32260802      28.28527293      40.93775812
Cu      39.12118587      30.09223929      40.94024712
Cu      40.93420563      31.88099783      40.92680589
Cu      37.33849077      26.47586296      42.73002004
Cu      39.14072835      28.28821612      42.72946832
Cu      40.95075250      30.09204198      42.72653979
Cu      39.13610426      26.46923491      44.54935975
Cu      21.04050920      28.29970537      28.29155343
Cu      22.85011587      30.08295840      28.26628911
Cu      24.67911455      31.88889277      28.27338686
Cu      26.47400648      33.71002363      28.28316258
Cu      28.28170713      35.50268674      28.27989590
Cu      30.08089646      37.32304709      28.26997777
Cu      31.88801003      39.10412393      28.27955273
Cu      33.70940026      40.94136780      28.29842638
Cu      35.50283093      42.75732499      28.30277116
Cu      37.32238279      44.53736455      28.29175326
Cu      22.87208088      28.28448762      30.10214581
Cu      24.65489899      30.09200136      30.08622487
Cu      26.48560923      31.90013385      30.07180728
Cu      28.29188794      33.70356798      30.09549005
Cu      30.09269643      35.51852353      30.09268896
Cu      31.89650763      37.33603880      30.09889341
Cu      33.71803012      39.13478174      30.07847885
Cu      35.52065826      40.96682443      30.08202534
Cu      37.31325202      42.73665185      30.10534431
Cu      39.13173004      44.53716991      30.08813456
Cu      24.67262088      28.27509141      31.90850140
Cu      26.46714532      30.08328726      31.89618634
Cu      28.28930680      31.88561029      31.88826464
Cu      30.09674082      33.72137732      31.91203376
Cu      31.88744617      35.49853532      31.90503949
Cu      33.72008741      37.33189109      31.91030033
Cu      35.51892852      39.12593106      31.90050008
Cu      37.33353226      40.93126588      31.90252098
Cu      39.12901029      42.74356554      31.89130328
Cu      26.48736231      28.29780830      33.70909691
Cu      28.28549274      30.12135535      33.71515782
Cu      30.08376889      31.89646696      33.69759214
Cu      31.90800365      33.69707094      33.70862081
Cu      33.70647075      35.50447475      33.72530363
Cu      35.51298458      37.31493170      33.70607870
Cu      37.31632171      39.13713039      33.71808441
Cu      39.12826754      40.93838164      33.71241127
Cu      28.26837826      28.29227035      35.50528003
Cu      30.10713596      30.09063801      35.53464738
Cu      31.90637817      31.89524629      35.52321434
Cu      33.72221278      33.71034460      35.52788422
Cu      35.51451534      35.51655829      35.51451390
Cu      37.32004522      37.31782289      35.52342535
Cu      39.14710626      39.12756273      35.50609486
Cu      30.09871726      28.29076817      37.33822443
Cu      31.89656733      30.08903894      37.33227302
Cu      33.71197309      31.90864043      37.32416777
Cu      35.52100662      33.71363635      37.32110222
Cu      37.32933609      35.51865143      37.32635966
Cu      39.14649982      37.31657045      37.33248162
Cu      31.89150362      28.28466419      39.11886276
Cu      33.71745396      30.10895360      39.12496139
Cu      35.53202342      31.88035088      39.12828159
Cu      37.33602956      33.69721382      39.12689160
Cu      39.12263649      35.51147724      39.13785205
Cu      33.71434445      28.30945193      40.94875710
Cu      35.51909251      30.09797982      40.93751785
Cu      37.33348003      31.90220709      40.93441458
Cu      39.13103603      33.70578211      40.95262864
Cu      35.51716673      28.26590141      42.75293981
Cu      37.31336104      30.07991431      42.74356982
Cu      39.12756095      31.90237561      42.74439630
Cu      37.34112053      28.30297506      44.55703452
Cu      39.13802484      30.09367504      44.54201272
Cu      21.06522308      30.08977200      30.09189119
Cu      22.87724633      31.90710927      30.09925591
Cu      24.64903860      33.71678650      30.09656490
Cu      26.48908943      35.53276843      30.10960064
Cu      28.27875364      37.32355058      30.08778290
Cu      30.08153735      39.13752934      30.07920191
Cu      31.88530440      40.94494073      30.10664712
Cu      33.72620592      42.76320118      30.10204672
Cu      35.52751262      44.54749489      30.09456422
Cu      22.87832129      30.08596902      31.90285380
Cu      24.65718306      31.89752623      31.89493626
Cu      26.45940336      33.70253243      31.90623855
Cu      28.28378244      35.49759598      31.88927929
Cu      30.09210971      37.30945974      31.91177111
Cu      31.91753044      39.14439076      31.90409724
Cu      33.70239466      40.92406618      31.90908988
Cu      35.52522644      42.74050732      31.91824088
Cu      37.30318569      44.56231890      31.90366961
Cu      24.67824332      30.08761805      33.68940965
Cu      26.48259642      31.88838806      33.70749398
Cu      28.27849802      33.71090153      33.69765347
Cu      30.08888285      35.51162353      33.71900748
Cu      31.90830339      37.32597122      33.72453206
Cu      33.69761108      39.11663672      33.70931417
Cu      35.50454066      40.92158188      33.69209372
Cu      37.32480507      42.76209998      33.70407349
Cu      26.47643656      30.09434280      35.50614973
Cu      28.30071092      31.89391233      35.52020792
Cu      30.09507009      33.70190917      35.50995366
Cu      31.90369258      35.51798264      35.50049650
Cu      33.72057399      37.31511844      35.51671119
Cu      35.52462771      39.13402219      35.52210465
Cu      37.32119080      40.94344258      35.50604371
Cu      28.26402946      30.07458191      37.31514482
Cu      30.09146079      31.90386350      37.33291346
Cu      31.89965893      33.69710673      37.33314307
Cu      33.70515440      35.51183074      37.31993797
Cu      35.50859178      37.32386058      37.33188396
Cu      37.31449259      39.14364502      37.30428101
Cu      30.10558841      30.10840079      39.12676027
Cu      31.90291564      31.90177207      39.13816789
Cu      33.72636843      33.69840916      39.14137621
Cu      35.51482452      35.50055653      39.13994265
Cu      37.32748738      37.31839006      39.12318930
Cu      39.11514555      39.14754614      39.14507133
Cu      31.89786608      30.09264285      40.92734847
Cu      33.71861849      31.89215231      40.95087821
Cu      35.50945753      33.70884167      40.92928088
Cu      37.33799274      35.50997460      40.91929459
Cu      33.71390175      30.09725878      42.75533185
Cu      35.51880422      31.87830071      42.73604665
Cu      37.33646646      33.70013923      42.75487579
Cu      35.52906265      30.09033210      44.55388233
Cu      37.33721651      31.90393417      44.55368832
Cu      21.06622846      31.90411723      31.90170497
Cu      22.86853212      33.69018459      31.90539110
Cu      24.68564567      35.51158748      31.91254994
Cu      26.47190041      37.32938482      31.90797073
Cu      28.28744702      39.12335976      31.90005585
Cu      30.07813950      40.94837346      31.89543895
Cu      31.90274682      42.75302851      31.90233574
Cu      33.69990757      44.56962552      31.88145075
Cu      35.49452078      46.36554248      31.90128697
Cu      22.87142774      31.90056799      33.69574288
Cu      24.65520906      33.68659602      33.69626235
Cu      26.47706199      35.51825504      33.71441624
Cu      28.28530889      37.32871000      33.72497738
Cu      30.08177662      39.13385654      33.71973711
Cu      31.89403680      40.94671257      33.69615190
Cu      33.70105095      42.75346065      33.70586520
Cu      35.52737491      44.54530259      33.70950525
Cu      24.66495556      31.90220807      35.50331287
Cu      26.47863892      33.68964906      35.50682157
Cu      28.28617983      35.51243892      35.51076304
Cu      30.07916791      37.30807433      35.52467405
Cu      31.90218552      39.12754053      35.50168610
Cu      33.70270016      40.92674518      35.51597651
Cu      35.51919574      42.75206815      35.52177586
Cu      26.46336986      31.89467699      37.32308714
Cu      28.27363821      33.72225927      37.31777955
Cu      30.09564355      35.52322556      37.29991071
Cu      31.90267478      37.32908724      37.31710813
Cu      33.70814983      39.11635225      37.31919733
Cu      35.50843351      40.94608106      37.31068671
Cu      28.27413407      31.88485982      39.13933782
Cu      30.09423734      33.70274440      39.13521330
Cu      31.92012472      35.52318029      39.13738664
Cu      33.70682270      37.32446942      39.12737162
Cu      35.52839504      39.13153296      39.14793403
Cu      30.08063862      31.91672088      40.94868121
Cu      31.91593131      33.70210830      40.92420378
Cu      33.70701647      35.50547018      40.94222555
Cu      35.50001917      37.32724136      40.93833462
Cu      31.89444503      31.91884911      42.72003807
Cu      33.71158238      33.71631878      42.71499946
Cu      35.51123966      35.50104860      42.73197864
Cu      33.71228598      31.91302916      44.56513292
Cu      35.52324695      33.70686491      44.54265427
Cu      35.51794851      31.89303647      46.34744076
Cu      21.05711456      33.71462139      33.70250336
Cu      22.84183896      35.49958090      33.69242808
Cu      24.68057894      37.31172862      33.69674488
Cu      26.47672089      39.12698171      33.70355745
Cu      28.28690836      40.92525115      33.70397569
Cu      30.08701734      42.76939455      33.72586660
Cu      31.91897783      44.54511878      33.70819522
Cu      33.71860602      46.35403862      33.70934501
Cu      22.87292964      33.69872017      35.49811394
Cu      24.67165245      35.51803611      35.50390472
Cu      26.48461811      37.33702975      35.50746497
Cu      28.28497065      39.13753462      35.52353210
Cu      30.10289803      40.94568467      35.51309625
Cu      31.91529125      42.74567084      35.53713782
Cu      33.69685414      44.55533227      35.52289509
Cu      24.66718514      33.70609343      37.31967525
Cu      26.47446012      35.49477863      37.34071805
Cu      28.29420985      37.30089232      37.32406118
Cu      30.09547700      39.11748003      37.32339369
Cu      31.91374793      40.93023770      37.30778806
Cu      33.70786630      42.75701576      37.31967668
Cu      26.46744874      33.70909496      39.12545482
Cu      28.28769184      35.51314621      39.12814394
Cu      30.09185441      37.31584117      39.13028748
Cu      31.92577816      39.10477757      39.12883246
Cu      33.70317545      40.93729505      39.13787990
Cu      28.27250066      33.70141018      40.94604495
Cu      30.09396879      35.52842262      40.93977702
Cu      31.90324916      37.31484180      40.93457516
Cu      33.69016419      39.15018281      40.93826393
Cu      30.10009331      33.70310187      42.75192873
Cu      31.90330238      35.51959083      42.75189099
Cu      33.73180259      37.32696888      42.73351163
Cu      31.91248877      33.70810507      44.54761799
Cu      33.69801083      35.51122756      44.56556352
Cu      33.71119227      33.72702122      46.35834769
Cu      21.04182400      35.52392906      35.51906153
Cu      22.85617288      37.31442555      35.53872711
Cu      24.65670742      39.13508151      35.51712022
Cu      26.47814656      40.94599671      35.51965647
Cu      28.29922656      42.74615411      35.51298075
Cu      30.10080046      44.53706287      35.50579521
Cu      31.90370462      46.38359107      35.50197062
Cu      22.85880109      35.53308143      37.32919530
Cu      24.66496802      37.31210874      37.32553136
Cu      26.48953226      39.14022428      37.32853699
Cu      28.27473233      40.93449998      37.33976219
Cu      30.09133750      42.74327131      37.33558624
Cu      31.89933493      44.55228181      37.32398788
Cu      24.66295792      35.51051685      39.12527178
Cu      26.46485215      37.33756176      39.13923214
Cu      28.30766919      39.13962846      39.13677038
Cu      30.09945502      40.92809629      39.14374452
Cu      31.91701768      42.74840605      39.12056071
Cu      26.47677841      35.52437623      40.93328590
Cu      28.30734699      37.32594283      40.94864741
Cu      30.08664376      39.12079654      40.94762018
Cu      31.89626862      40.94150492      40.93041258
Cu      28.29340428      35.50337399      42.74393922
Cu      30.07823432      37.31462322      42.75085023
Cu      31.90207637      39.14397813      42.74351879
Cu      30.09819212      35.52188437      44.54456274
Cu      31.90390847      37.31570024      44.54305579
Cu      31.90256093      35.51831764      46.34998204
Cu      21.04029536      37.32589504      37.30756211
Cu      22.85771213      39.12909602      37.30972611
Cu      24.68061633      40.91860318      37.31964542
Cu      26.47236208      42.75300468      37.32437776
Cu      28.28402310      44.56804811      37.31788685
Cu      22.86459886      37.33306880      39.13330020
Cu      24.67915608      39.12644493      39.13486939
Cu      26.46435156      40.93433020      39.13807707
Cu      28.28091872      42.75601662      39.13416892
Cu      30.08731461      44.55730567      39.13318950
Cu      24.68223215      37.33173150      40.93224642
Cu      26.48267210      39.11303188      40.92415766
Cu      28.28177166      40.94029295      40.96244463
Cu      30.09787435      42.76299005      40.94774304
Cu      26.48132710      37.32366962      42.74756889
Cu      28.28656650      39.12769342      42.74020071
Cu      30.08346037      40.93942508      42.74680606
Cu      28.26901161      37.31515883      44.55154857
Cu      30.10693910      39.13235945      44.53383317
Cu      21.07856743      39.10972168      39.13681423
Cu      22.84933159      40.94186907      39.13551573
Cu      24.67659083      42.74471283      39.12867014
Cu      26.47892741      44.56746236      39.13336770
Cu      22.84831508      39.13345866      40.96612188
Cu      24.67867394      40.95315335      40.96550530
Cu      26.48403596      42.74889417      40.91662708
Cu      24.67976966      39.11224833      42.74568038
Cu      26.47460349      40.91645478      42.74207769
Cu      26.47447784      39.14437645      44.57282917
Cu      21.07082727      40.94392274      40.94346360
Cu      22.88352065      42.74326677      40.94192635
Cu      24.68689412      44.55311453      40.91416435
Cu      22.85257348      40.92919157      42.73228147
Cu      24.67845334      42.73874543      42.73857528
Cu      24.68098041      40.92662248      44.56699259
Cu      21.05645716      42.75882872      42.76006702
