108
Lattice="15.027493761127914 0.0 0.0 0.0 11.961936604092426 0.0 0.0 0.0 13.520682079046532" Properties=species:S:1:pos:R:3 id=sample_000223 pbc="F F F"
Au      -0.00385018       0.01614529      -0.01853184
Au      -0.00923972       1.99962144       2.25233182
Au       2.50459207      -0.00355618       2.24258752
Au       2.50479187       2.00121619      -0.00977951
Au      -0.01352647       0.00430281       4.50401571
Au      -0.00956983       1.98229949       6.76153410
Au       2.49271649      -0.00430266       6.76576032
Au       2.49924151       1.98626912       4.52009392
Au       0.00826464       0.00221666       9.00988277
Au      -0.00040997       1.97968819      11.26685397
Au       2.50012783       0.00781699      11.28988894
Au       2.49977130       2.00639505       9.01784474
Au      -0.01492764       3.99574007       0.00786052
Au       0.00830381       5.98275595       2.27280984
Au       2.49934818       3.98929697       2.25484926
Au       2.52007784       5.99358232      -0.00211668
Au       0.00218300       3.98742229       4.49913809
Au       0.01632101       5.98875612       6.75988292
Au       2.48976981       3.98792877       6.76101882
Au       2.49307460       5.99551911       4.52333929
Au      -0.00154157       3.98521249       9.01897810
Au      -0.00422083       5.98921434      11.26585713
Au       2.50440076       3.98420343      11.25543571
Au       2.50491612       5.98841681       9.00950890
Au      -0.00895497       7.99887351      -0.00662381
Au       0.00089334       9.97054515       2.23333315
Au       2.48037121       7.97473300       2.25502802
Au       2.49077256       9.96830053       0.00505726
Au       0.00117781       7.97073150       4.51483620
Au       0.00056136       9.97663906       6.78017834
Au       2.50601723       7.97693882       6.75008081
Au       2.50156508       9.97895913       4.49025048
Au      -0.00634757       7.97332220       9.01379164
Au       0.00075473       9.97556425      11.26503619
Au       2.49321610       7.97520882      11.26085784
Au       2.50564070       9.98904348       9.00795403
Au       5.00722286       0.01122173      -0.00172947
Au       5.00738647       1.98224245       2.27661886
Au       7.50498950      -0.00474465       2.26327441
Au       7.49927335       1.99671304      -0.00908175
Au       5.02551291       0.00518892       4.51479435
Au       5.01162202       2.01977708       6.75411826
Au       7.51451376      -0.00594057       6.76064374
Au       7.52632717       1.96910414       4.49596160
Au       5.00726325      -0.00558022       9.02543838
Au       5.00513562       1.98447220      11.26049682
Au       7.51761472      -0.00018598      11.27027409
Au       7.51568135       1.98082537       9.02070275
Au       5.00394827       3.99486581      -0.01773477
Au       4.98181144       5.96189584       2.26448288
Au       7.51899299       3.96385736       2.23912664
Au       7.50092716       5.98322866      -0.00401426
Au       4.99724664       3.98973661       4.53482589
Au       5.01554570       5.97227274       6.75542573
Au       7.52212105       3.97359836       6.76909347
Au       7.52604253       5.98227767       4.49766634
Au       5.00910762       3.99947381       9.03040998
Au       5.01045153       5.97137637      11.25375851
Au       7.51951279       3.97437438      11.28245866
Au       7.52927170       5.97516057       9.00378420
Au       5.02047735       7.97772621       0.00323014
Au       5.01004261       9.97336493       2.24809708
Au       7.49613525       7.97847073       2.25619070
Au       7.51495642       9.97129691       0.00898225
Au       5.00296978       7.96760539       4.50494261
Au       4.99860101       9.95435769       6.77274957
Au       7.54400373       7.96639073       6.75123335
Au       7.52838686       9.96117323       4.50928216
Au       4.99445659       7.96821742       9.00559050
Au       5.02041976       9.94994883      11.26196364
Au       7.51634394       7.96540581      11.27210993
Au       7.51608484       9.97666800       9.00238111
Au      10.01504691      -0.00871405       0.00734044
Au      10.02158595       1.98718274       2.26307571
Au      12.51678256      -0.01846078       2.25554727
Au      12.54113488       1.99336460       0.00687872
Au      10.00545673      -0.00208036       4.50189350
Au      10.01991263       2.01413252       6.76550796
Au      12.53336114       0.00281743       6.76430188
Au      12.52815521       1.98031949       4.49767622
Au      10.02556765       0.00509119       9.02019818
Au      10.02667089       1.99346527      11.26511374
Au      12.52805183       0.00044380      11.27034554
Au      12.53690450       1.99848322       8.98651505
Au      10.03633288       3.99032323       0.00887201
Au      10.00661704       6.00001009       2.25432128
Au      12.52106739       4.00337273       2.25225542
Au      12.52204078       5.97897239       0.00052049
Au      10.00749073       3.99778320       4.49580324
Au      10.04321989       5.97899318       6.76970549
Au      12.51527026       3.98519600       6.75319312
Au      12.51739720       5.99225933       4.50007102
Au      10.02099726       3.98736838       9.02464211
Au      10.01705775       5.97196377      11.26993489
Au      12.51614498       3.98974806      11.26907624
Au      12.51883149       5.99564203       9.01218500
Au      10.01310826       7.97006881       0.00142103
Au      10.00475648       9.97212769       2.25582185
Au      12.52853911       7.97842481       2.26234968
Au      12.51919700       9.99007567      -0.00087318
Au      10.02161747       7.95654231       4.49683842
Au      10.01681195       9.97649287       6.75643591
Au      12.53120301       7.97565369       6.75062032
Au      12.52840553       9.96432471       4.49224617
Au      10.04190416       7.97861273       9.02025463
Au      10.01905173       9.96454812      11.27231784
Au      12.51681367       7.97205571      11.27500740
Au      12.52613485       9.96791349       9.00346446
