108
Lattice="9.241836099491593 0.0 0.0 0.0 8.653055774137645 0.0 0.0 0.0 9.195869949163052" Properties=species:S:1:pos:R:3 id=sample_001707 pbc="F F F"
Fe       0.01713868       0.01725379      -0.02478953
Fe       0.01210075       1.43439783       1.53857609
Fe       1.51746254      -0.00222221       1.53399539
Fe       1.53460875       1.44259680       0.02039432
Fe       0.00048895       0.01131348       3.07515238
Fe      -0.00014076       1.44000822       4.61163766
Fe       1.50416185      -0.02146061       4.57370980
Fe       1.54485219       1.45286311       3.09403583
Fe       0.00378580       0.01261843       6.16364632
Fe       0.01272830       1.43208855       7.68146329
Fe       1.55758892       0.01829615       7.64054892
Fe       1.52540381       1.45681790       6.12232414
Fe       0.00139075       2.89130377       0.00199863
Fe      -0.00848912       4.33523292       1.54951702
Fe       1.52069925       2.88772377       1.54812283
Fe       1.54145451       4.34948331      -0.01738627
Fe      -0.01497778       2.87652300       3.05174131
Fe      -0.01182155       4.30282342       4.59324890
Fe       1.56868741       2.87841794       4.58539080
Fe       1.53843370       4.33188323       3.05357297
Fe       0.00300466       2.88245280       6.11933303
Fe      -0.01332682       4.31087851       7.66298858
Fe       1.55018857       2.89145008       7.65660768
Fe       1.53171376       4.32509411       6.14301551
Fe      -0.04360845       5.76783977      -0.01342160
Fe       0.01378176       7.19205461       1.53029788
Fe       1.54084147       5.77917178       1.54089382
Fe       1.54665106       7.20151908      -0.00749202
Fe       0.00413876       5.73219453       3.07322455
Fe       0.00182823       7.18342613       4.58138006
Fe       1.56698191       5.78573922       4.59516783
Fe       1.55891969       7.19707747       3.06102739
Fe      -0.00298806       5.77865483       6.14950618
Fe       0.00604003       7.21568888       7.66880172
Fe       1.53191692       5.76132709       7.66706476
Fe       1.53681010       7.21844020       6.12480468
Fe       3.08696098      -0.00158423      -0.01664526
Fe       3.08401229       1.45848076       1.53722013
Fe       4.63460199      -0.00703522       1.53870333
Fe       4.60299526       1.44320564       0.01471953
Fe       3.07902628       0.00205804       3.06217488
Fe       3.07886963       1.45598309       4.63021701
Fe       4.62909899      -0.01371395       4.57769504
Fe       4.64468428       1.45077607       3.05393375
Fe       3.05754922       0.02907731       6.13971363
Fe       3.08207265       1.44512152       7.65761182
Fe       4.64822264      -0.00754821       7.65904647
Fe       4.63561421       1.43088619       6.13039020
Fe       3.07511646       2.88977150      -0.00155999
Fe       3.07562525       4.34308071       1.52374069
Fe       4.59952180       2.90764375       1.54339672
Fe       4.62172339       4.34190913       0.00501888
Fe       3.09115933       2.87273879       3.05573628
Fe       3.08243067       4.32385679       4.60441555
Fe       4.62661703       2.88940905       4.59127561
Fe       4.61293576       4.34361147       3.06990127
Fe       3.07551225       2.86293455       6.11816435
Fe       3.07670309       4.29808451       7.67164916
Fe       4.60253261       2.87043212       7.67671768
Fe       4.65504936       4.32863006       6.12303571
Fe       3.06556963       5.76299148       0.01268202
Fe       3.07807829       7.22900703       1.51710469
Fe       4.61305726       5.74874325       1.54400064
Fe       4.63443856       7.18712430       0.01404135
Fe       3.07851142       5.78959771       3.04295121
Fe       3.07948201       7.21130851       4.60528422
Fe       4.62514003       5.80063585       4.58161852
Fe       4.62383530       7.18870018       3.05404513
Fe       3.10804425       5.76228751       6.14449639
Fe       3.08408984       7.20454243       7.68289754
Fe       4.62836980       5.75829879       7.64672708
Fe       4.63282862       7.21242849       6.13951062
Fe       6.15698048       0.00331865      -0.00515249
Fe       6.17445966       1.43755734       1.54149051
Fe       7.68870642       0.00128670       1.52825444
Fe       7.70387371       1.46272042       0.00195758
Fe       6.17055509       0.00770615       3.06446793
Fe       6.18607644       1.44740481       4.57996424
Fe       7.70190932       0.01318065       4.60458348
Fe       7.69255055       1.45533024       3.07299573
Fe       6.15656790      -0.01227759       6.12246274
Fe       6.16789695       1.44393854       7.65077812
Fe       7.69716302      -0.00432150       7.67546157
Fe       7.72115070       1.45266654       6.12475861
Fe       6.14642354       2.86126935       0.00220577
Fe       6.17410887       4.32318881       1.51213386
Fe       7.68383910       2.86557606       1.54387472
Fe       7.70430744       4.32513019      -0.01803938
Fe       6.17639297       2.89893067       3.06005623
Fe       6.15795378       4.31881949       4.57294242
Fe       7.72471703       2.87899264       4.61297885
Fe       7.68912684       4.32912823       3.06162849
Fe       6.17723634       2.88020670       6.12679669
Fe       6.16038996       4.34221656       7.65491980
Fe       7.70535719       2.86779967       7.68233720
Fe       7.68526428       4.33193640       6.15231573
Fe       6.16431792       5.76659895      -0.00777232
Fe       6.16137000       7.18045338       1.52690552
Fe       7.69785021       5.77409435       1.52653095
Fe       7.68814962       7.20395674       0.00276382
Fe       6.16886200       5.76299787       3.07464956
Fe       6.16319089       7.20523127       4.59251610
Fe       7.70470116       5.78126473       4.62114942
Fe       7.71972059       7.20348839       3.07823633
Fe       6.16283600       5.78940858       6.11490300
Fe       6.15535770       7.18348021       7.65977378
Fe       7.69217831       5.77934781       7.65807177
Fe       7.71318617       7.23435833       6.10678363
