108
Lattice="8.079223980075719 0.0 0.0 0.0 10.156006825719963 0.0 0.0 0.0 11.025147866814201" Properties=species:S:1:pos:R:3 id=sample_001358 pbc="F F F"
Fe       0.01802428       0.00419773      -0.01555721
Fe       0.00273429       1.68513895       1.83422687
Fe       1.36578668       0.01065081       1.83873294
Fe       1.34691814       1.70039450      -0.01204374
Fe       0.01060913      -0.00625706       3.68550362
Fe       0.01694060       1.68934504       5.53056473
Fe       1.35484353       0.00046087       5.50557890
Fe       1.36546208       1.70211198       3.66825773
Fe       0.00771217      -0.01052515       7.36545616
Fe      -0.00163682       1.70330332       9.17280516
Fe       1.35246988      -0.00889060       9.17067603
Fe       1.35451956       1.69074075       7.34892493
Fe      -0.00592127       3.37800318       0.01300693
Fe      -0.03094479       5.08589915       1.83948146
Fe       1.35759382       3.39217626       1.81920641
Fe       1.35692737       5.07798510      -0.00879226
Fe      -0.02326941       3.36961765       3.68110092
Fe      -0.00005340       5.08909378       5.49308725
Fe       1.34307245       3.36919515       5.50872233
Fe       1.36344551       5.07483864       3.66684620
Fe      -0.00917217       3.37111808       7.35281437
Fe      -0.00099388       5.06379748       9.19760194
Fe       1.33625292       3.39992352       9.18622847
Fe       1.34087481       5.08534011       7.34602265
Fe      -0.03041527       6.76631530       0.00296544
Fe       0.00425401       8.46681120       1.83049973
Fe       1.35773192       6.77571504       1.83624706
Fe       1.33836728       8.46691626      -0.01045587
Fe       0.00027450       6.74079734       3.68915541
Fe      -0.00345901       8.46881645       5.51217386
Fe       1.33442686       6.76773783       5.53682755
Fe       1.34541066       8.46234427       3.66676776
Fe      -0.00641895       6.77542461       7.35288784
Fe      -0.00898139       8.46999054       9.17277558
Fe       1.35208356       6.76982961       9.20045860
Fe       1.34169877       8.46635626       7.35804152
Fe       2.70195343      -0.00402900      -0.00244347
Fe       2.68367909       1.68718279       1.83454193
Fe       4.03735407       0.00501457       1.82579899
Fe       4.04715166       1.68506423      -0.00208269
Fe       2.70048591       0.00134575       3.68283736
Fe       2.69769347       1.70104478       5.51799996
Fe       4.04883952      -0.00174442       5.52456325
Fe       4.04063296       1.69443716       3.69144178
Fe       2.69636750      -0.00492052       7.34835283
Fe       2.68746929       1.68313704       9.18545021
Fe       4.02870255      -0.01095021       9.18363357
Fe       4.03817170       1.68790243       7.33913843
Fe       2.69499970       3.39781670      -0.01101319
Fe       2.71132919       5.08052158       1.85063422
Fe       4.04269645       3.38028679       1.83968758
Fe       4.03547191       5.07120154      -0.00269489
Fe       2.68218378       3.39853492       3.67774475
Fe       2.69237744       5.07897899       5.52473694
Fe       4.02048026       3.37830365       5.51286229
Fe       4.03443269       5.07482220       3.68291829
Fe       2.66897753       3.37353370       7.34633214
Fe       2.72377075       5.08919395       9.17488132
Fe       4.04574646       3.38409603       9.18299106
Fe       4.04293593       5.07701749       7.34436119
Fe       2.70819614       6.76322297       0.00136007
Fe       2.69105150       8.46639822       1.82443152
Fe       4.05294083       6.77097614       1.83325852
Fe       4.03403715       8.46632729      -0.00038845
Fe       2.69890086       6.76303149       3.69850861
Fe       2.69638579       8.45218665       5.50311008
Fe       4.05092350       6.75520891       5.50845118
Fe       4.03593042       8.47250673       3.68735549
Fe       2.69663555       6.77908353       7.34325176
Fe       2.70128924       8.46320075       9.21441624
Fe       4.03275057       6.77501146       9.19861632
Fe       4.03902893       8.47199162       7.33785683
Fe       5.38892627      -0.00598143       0.00116175
Fe       5.38965756       1.70953311       1.82640334
Fe       6.73749501       0.00494899       1.85872760
Fe       6.73142019       1.67181852       0.00426795
Fe       5.38688837       0.00373743       3.68925837
Fe       5.38811644       1.70838685       5.51020182
Fe       6.73434427       0.00239619       5.51332964
Fe       6.72329834       1.68797248       3.66322134
Fe       5.39121929       0.01720140       7.36316217
Fe       5.40369270       1.70230443       9.18598394
Fe       6.74075664       0.02465044       9.19660602
Fe       6.72769880       1.70058020       7.36266928
Fe       5.38134575       3.39946220       0.00416873
Fe       5.39044001       5.08030908       1.83599184
Fe       6.74216312       3.36957694       1.83529746
Fe       6.74550360       5.08410803      -0.01342422
Fe       5.38657067       3.36695496       3.68124157
Fe       5.38876284       5.07669351       5.51107001
Fe       6.72628123       3.37329606       5.50995541
Fe       6.73307288       5.08320912       3.67620615
Fe       5.38744262       3.38427877       7.34975441
Fe       5.36971535       5.06765773       9.15715900
Fe       6.73126592       3.38724412       9.17800963
Fe       6.72773592       5.08215621       7.35532078
Fe       5.39887267       6.78075891       0.00452420
Fe       5.37976424       8.45924302       1.83565068
Fe       6.73839941       6.77810776       1.84085598
Fe       6.72173463       8.46768718       0.00108076
Fe       5.37500465       6.76462096       3.67229041
Fe       5.39042808       8.46452588       5.51556763
Fe       6.73712288       6.78977779       5.52960557
Fe       6.73060245       8.45597641       3.67732945
Fe       5.37255105       6.77525540       7.34612001
Fe       5.36617940       8.46758088       9.18978528
Fe       6.71506031       6.76817836       9.16002764
Fe       6.73258479       8.46464376       7.35936837
