256
Lattice="13.69380543165312 0.0 0.0 0.0 12.865599871976276 0.0 0.0 0.0 13.55381123109298" Properties=species:S:1:pos:R:3 id=sample_000504 pbc="F F F"
Fe      -0.00335925       0.01254044       0.00898392
Fe      -0.01014204       1.62888783       1.69978175
Fe       1.71815099      -0.02491367       1.71440479
Fe       1.71652237       1.60201169       0.00458499
Fe       0.00785278      -0.00289098       3.38927022
Fe       0.00489597       1.62009605       5.08917429
Fe       1.69336375       0.01191042       5.09455892
Fe       1.71894918       1.60793965       3.39287884
Fe      -0.00908156      -0.00009325       6.76361581
Fe       0.00296921       1.60824925       8.48032482
Fe       1.69876012       0.01099394       8.46023297
Fe       1.70660168       1.61108413       6.75965875
Fe       0.01758206      -0.00755808      10.14874240
Fe       0.00689236       1.60630485      11.86921918
Fe       1.71608270       0.00300406      11.87890498
Fe       1.72391257       1.58584163      10.15331378
Fe      -0.01016255       3.22990126      -0.00247874
Fe      -0.00515191       4.82455357       1.70883740
Fe       1.69715503       3.20921664       1.70038743
Fe       1.70608801       4.81650173       0.00126756
Fe      -0.00152687       3.20274267       3.37627928
Fe       0.00923392       4.84267627       5.07530401
Fe       1.70756912       3.20315871       5.08538792
Fe       1.71578451       4.79702989       3.38930585
Fe      -0.01319945       3.22022469       6.77604256
Fe      -0.00027561       4.82040578       8.46886920
Fe       1.69365815       3.21963022       8.48212180
Fe       1.72299126       4.81849799       6.76757506
Fe      -0.00242109       3.21933847      10.16256219
Fe      -0.00890635       4.82667052      11.86553695
Fe       1.70899251       3.19874920      11.86797488
Fe       1.69377353       4.82632437      10.15128055
Fe      -0.01952880       6.43222292      -0.01081605
Fe      -0.01107340       8.03232100       1.69811782
Fe       1.71261671       6.44018497       1.68082878
Fe       1.72120531       8.06424161      -0.00552524
Fe      -0.01621907       6.42694238       3.39341717
Fe       0.00456804       8.05503072       5.07599722
Fe       1.70578028       6.43115572       5.08483437
Fe       1.70909397       8.04737166       3.37525221
Fe      -0.00319415       6.43584927       6.77963411
Fe      -0.00655174       8.04540301       8.45569827
Fe       1.70063195       6.42144785       8.46367027
Fe       1.72580624       8.04885180       6.76869566
Fe       0.00986112       6.44640143      10.17960478
Fe      -0.00757072       8.04991010      11.87269882
Fe       1.69792660       6.43585207      11.84858441
Fe       1.71214872       8.02587641      10.15817427
Fe      -0.00284975       9.63917267      -0.00743729
Fe       0.00544492      11.24074837       1.69553249
Fe       1.73586639       9.66090636       1.68675691
Fe       1.71089137      11.25470687      -0.00370376
Fe      -0.00513839       9.65995875       3.38974684
Fe       0.00206465      11.25100052       5.06868294
Fe       1.71820094       9.66052255       5.07601122
Fe       1.71836727      11.25642149       3.37563561
Fe      -0.00218316       9.66149502       6.77738624
Fe      -0.00489648      11.25689277       8.46803705
Fe       1.70325043       9.65942873       8.46503508
Fe       1.70926029      11.27218353       6.77362185
Fe      -0.00329416       9.62757896      10.17305164
Fe      -0.00110662      11.24309301      11.85904607
Fe       1.69173980       9.65914381      11.84275678
Fe       1.70191320      11.25553082      10.17979559
Fe       3.43652191      -0.00087933      -0.01027541
Fe       3.44897720       1.60386146       1.66742974
Fe       5.11802607      -0.00639436       1.68760723
Fe       5.15684080       1.62303700       0.01190260
Fe       3.41979240      -0.00178464       3.39431598
Fe       3.40738274       1.61898843       5.09950152
Fe       5.14609344      -0.00634937       5.08449949
Fe       5.12633987       1.61671106       3.39842727
Fe       3.44154648       0.02262967       6.78142212
Fe       3.42663666       1.59991972       8.47201462
Fe       5.14158728      -0.02396350       8.47004078
Fe       5.13152960       1.60814050       6.77854541
Fe       3.41761856       0.00185831      10.15267864
Fe       3.42427843       1.60787037      11.86368637
Fe       5.14334109      -0.00169271      11.88832266
Fe       5.12586720       1.60414529      10.16521147
Fe       3.42163512       3.21873342      -0.00491775
Fe       3.42380025       4.81378377       1.68556679
Fe       5.13797008       3.22863891       1.69395986
Fe       5.12445261       4.82321484       0.00722379
Fe       3.42433630       3.20589165       3.39055993
Fe       3.40896506       4.81820535       5.07639363
Fe       5.13031676       3.19680964       5.08457149
Fe       5.14038802       4.82240228       3.39456597
Fe       3.41837462       3.21998310       6.77561404
Fe       3.42229128       4.81570537       8.46878861
Fe       5.11777920       3.21711662       8.46816463
Fe       5.13515324       4.84062473       6.78569163
Fe       3.41646802       3.20943970      10.17286258
Fe       3.42684857       4.83012952      11.86538222
Fe       5.13808417       3.22705833      11.84541936
Fe       5.12145294       4.82534678      10.17595734
Fe       3.42290305       6.43867846       0.00161108
Fe       3.41664314       8.02446043       1.69535418
Fe       5.13408803       6.42941143       1.70895441
Fe       5.11647500       8.02776618       0.01481968
Fe       3.40530045       6.45408954       3.39403025
Fe       3.41346032       8.03105669       5.10192836
Fe       5.13448467       6.43776394       5.08082114
Fe       5.14508448       8.04048831       3.39720941
Fe       3.44717335       6.44391073       6.78679950
Fe       3.41517305       8.02646687       8.45245950
Fe       5.12758444       6.44454691       8.47616824
Fe       5.13841006       8.04119321       6.77122307
Fe       3.41604166       6.44019169      10.16658185
Fe       3.41992097       8.04821553      11.85008761
Fe       5.13196014       6.44554107      11.87100773
Fe       5.13337736       8.03477722      10.16252319
Fe       3.43318603       9.64408871      -0.00695095
Fe       3.40963843      11.24936388       1.70450399
Fe       5.13051856       9.65190044       1.68147864
Fe       5.12831935      11.24355568      -0.00361401
Fe       3.42003795       9.64486162       3.37287441
Fe       3.41966773      11.26162685       5.08169505
Fe       5.12374047       9.65361118       5.06972446
Fe       5.14791967      11.24954389       3.38534512
Fe       3.44003326       9.64569020       6.77202749
Fe       3.42621889      11.25128750       8.47518347
Fe       5.13410926       9.63379494       8.46935443
Fe       5.13338743      11.24267475       6.77352013
Fe       3.43748347       9.63984656      10.15918270
Fe       3.42535843      11.25551260      11.86073798
Fe       5.14333883       9.63402392      11.87178116
Fe       5.12511973      11.27642694      10.15597078
Fe       6.84433820      -0.01373082       0.01518715
Fe       6.85146029       1.60905429       1.67793668
Fe       8.57656256      -0.02135210       1.70448130
Fe       8.55138463       1.60284703      -0.01676975
Fe       6.83966850       0.01629366       3.39236850
Fe       6.85736187       1.61741757       5.05671148
Fe       8.55739670       0.00393622       5.07913638
Fe       8.56291802       1.59798345       3.39538164
Fe       6.86086209      -0.00286882       6.76116480
Fe       6.83804816       1.61630578       8.47307695
Fe       8.54774543      -0.00155127       8.47411876
Fe       8.55023725       1.60835537       6.77742251
Fe       6.83897851      -0.00482590      10.16458161
Fe       6.83587613       1.60226071      11.85597366
Fe       8.55698323       0.00502663      11.85763331
Fe       8.55512640       1.60370488      10.15951099
Fe       6.84507836       3.21745705       0.00997618
Fe       6.83155360       4.81875898       1.68873838
Fe       8.58039015       3.20774397       1.70582733
Fe       8.56407677       4.80537425      -0.00642754
Fe       6.84562822       3.21092154       3.39294585
Fe       6.86132175       4.81641833       5.09038649
Fe       8.54813378       3.20073127       5.07226644
Fe       8.57955632       4.82170096       3.39985538
Fe       6.85158544       3.21353734       6.78084945
Fe       6.83608891       4.82576957       8.47636351
Fe       8.55711545       3.22566389       8.45820081
Fe       8.54201166       4.83662706       6.76296274
Fe       6.87580194       3.20792794      10.15816203
Fe       6.86143806       4.81430101      11.85543587
Fe       8.54435239       3.21383506      11.85840417
Fe       8.57608190       4.83578008      10.16346151
Fe       6.83256661       6.43512907      -0.00199977
Fe       6.85578074       8.04416194       1.68974900
Fe       8.55949221       6.42253642       1.68662031
Fe       8.55759744       8.02121991      -0.00630995
Fe       6.84277641       6.43438551       3.38002833
Fe       6.83170073       8.04841621       5.06989721
Fe       8.56702089       6.44019715       5.07372714
Fe       8.54475968       8.04144659       3.38849629
Fe       6.85769089       6.42672811       6.76985098
Fe       6.81955047       8.02692951       8.47284444
Fe       8.55503080       6.43985847       8.45574821
Fe       8.55408903       8.03006507       6.78382242
Fe       6.84448148       6.41965377      10.17533462
Fe       6.84176215       8.05104130      11.84765349
Fe       8.56470778       6.44019809      11.87319322
Fe       8.56036034       8.02318017      10.16225590
Fe       6.84265342       9.65126957      -0.00971251
Fe       6.84561686      11.25821786       1.68864797
Fe       8.54252729       9.64415823       1.68986641
Fe       8.54264143      11.25859964      -0.00479196
Fe       6.86086197       9.64411929       3.38700441
Fe       6.83667465      11.24140890       5.08392673
Fe       8.56204649       9.65997688       5.08235235
Fe       8.55946798      11.26011171       3.38640083
Fe       6.83174359       9.65248699       6.76561116
Fe       6.84541765      11.26834333       8.46182906
Fe       8.56053521       9.63839063       8.48737101
Fe       8.56783330      11.26483884       6.76552589
Fe       6.86299124       9.64776530      10.17553640
Fe       6.85453693      11.26210900      11.83541458
Fe       8.54230000       9.64928791      11.87793446
Fe       8.56878422      11.25900460      10.16203145
Fe      10.28151600      -0.00404822       0.00115577
Fe      10.26870743       1.61291407       1.69002663
Fe      11.97112266      -0.01612324       1.70629086
Fe      11.97592368       1.60443209      -0.00356098
Fe      10.28282100      -0.00072820       3.39938200
Fe      10.26956410       1.60160382       5.06698896
Fe      11.98895735      -0.01656544       5.09689744
Fe      11.99692852       1.59087263       3.37505350
Fe      10.26188536       0.01421235       6.78506873
Fe      10.26692662       1.60391100       8.45436146
Fe      11.98341884       0.00072893       8.48301191
Fe      12.00392921       1.61314617       6.76687368
Fe      10.28752464      -0.00500075      10.16813786
Fe      10.27980658       1.60312115      11.85941806
Fe      11.98834495      -0.01225622      11.86586166
Fe      11.98702348       1.60393362      10.16149714
Fe      10.27147675       3.20921742      -0.00634638
Fe      10.27606097       4.83732955       1.68880032
Fe      11.96777329       3.22246093       1.69138083
Fe      11.97356661       4.81007286       0.00088740
Fe      10.27626595       3.22016507       3.39517442
Fe      10.27157825       4.82729819       5.09746009
Fe      12.00026633       3.22491556       5.07048881
Fe      11.98826008       4.82492095       3.37257208
Fe      10.28688193       3.19617040       6.78506196
Fe      10.28015022       4.83390443       8.44929519
Fe      11.98648433       3.21284527       8.47397963
Fe      11.98348000       4.81212173       6.77202908
Fe      10.26774807       3.22388215      10.16043405
Fe      10.25686280       4.84276260      11.84636430
Fe      11.95983158       3.22798087      11.86706069
Fe      11.98188120       4.81443779      10.15364707
Fe      10.26672086       6.44723255       0.01436793
Fe      10.26514510       8.03627516       1.69267787
Fe      11.96827230       6.42406485       1.69730906
Fe      11.99190193       8.02225409      -0.01346632
Fe      10.26874592       6.42346933       3.38299521
Fe      10.27270759       8.03998275       5.07481166
Fe      11.98825323       6.43676994       5.07182096
Fe      11.96238991       8.03969152       3.38376937
Fe      10.25316459       6.43173233       6.76664635
Fe      10.28595391       8.04646475       8.46119904
Fe      11.96220869       6.41758600       8.47351343
Fe      11.97842614       8.05601787       6.75874391
Fe      10.26941516       6.42939096      10.15623634
Fe      10.27200697       8.03549776      11.86776077
Fe      11.99717159       6.42204636      11.85096060
Fe      11.98376859       8.05113746      10.15140954
Fe      10.28062216       9.64026046       0.00447857
Fe      10.27254516      11.25267945       1.69111775
Fe      11.99220337       9.64681242       1.70965469
Fe      11.95401691      11.25773978       0.01153705
Fe      10.26836503       9.65087015       3.38737946
Fe      10.24393639      11.27074995       5.06756989
Fe      11.96334248       9.63199032       5.07487390
Fe      11.98595901      11.23728225       3.40295562
Fe      10.27241286       9.63217003       6.76818051
Fe      10.26524227      11.25690388       8.46652722
Fe      11.98193353       9.65603184       8.46448470
Fe      11.99426477      11.27721681       6.77079633
Fe      10.29081513       9.64281868      10.16875237
Fe      10.27540108      11.26205257      11.85871549
Fe      11.99280787       9.64502917      11.86560156
Fe      11.96744779      11.26623867      10.16438084
