500
Lattice="22.923520307819825 0.0 0.0 0.0 22.621129869358988 0.0 0.0 0.0 22.035295979604363" Properties=species:S:1:pos:R:3 id=sample_001515 pbc="F F F"
Cu      -0.02554468      -0.01282984       0.00716085
Cu      -0.00449534       2.27226292       2.20357461
Cu       2.26321119      -0.00709200       2.18071670
Cu       2.27705017       2.28085972       0.00616444
Cu      -0.02221250      -0.00494075       4.39358745
Cu      -0.01406789       2.28787698       6.62256313
Cu       2.32598377      -0.01675464       6.61618082
Cu       2.31251314       2.27207708       4.42231094
Cu       0.02216133      -0.02215950       8.83057086
Cu       0.00406965       2.28545971      11.04092700
Cu       2.27413834       0.03246912      11.01012599
Cu       2.27981562       2.24026942       8.80335120
Cu       0.00246814       0.00627338      13.20774150
Cu       0.01905862       2.27609269      15.43533260
Cu       2.29511006      -0.00393334      15.40113790
Cu       2.29367768       2.27538819      13.24607785
Cu      -0.01249720      -0.01277360      17.63384643
Cu       0.00828883       2.26490987      19.85292386
Cu       2.30262171       0.00492624      19.81712385
Cu       2.31603218       2.23832269      17.60737878
Cu      -0.01399234       4.53652022       0.00201053
Cu       0.02431846       6.77159297       2.18877811
Cu       2.31912470       4.52801776       2.18256761
Cu       2.25577614       6.79036674       0.05034120
Cu      -0.00808289       4.52180277       4.38542320
Cu      -0.00876811       6.79733491       6.62525060
Cu       2.28378595       4.56263002       6.60291171
Cu       2.32477030       6.75188672       4.41001864
Cu      -0.00939629       4.52626732       8.80702960
Cu       0.02640539       6.79030618      11.01719375
Cu       2.27632179       4.51866268      11.03218681
Cu       2.28569736       6.80652927       8.82246114
Cu      -0.00686068       4.51292606      13.22128998
Cu       0.00000864       6.79208968      15.44067872
Cu       2.32002402       4.54977330      15.40092532
Cu       2.31178826       6.78594199      13.21121719
Cu       0.01831499       4.51988874      17.61981413
Cu       0.02960782       6.76333306      19.78129076
Cu       2.28011616       4.52403372      19.80844959
Cu       2.33152795       6.75052424      17.63857963
Cu      -0.01162342       9.03779118       0.02319654
Cu      -0.00015273      11.33166026       2.18842419
Cu       2.32422201       9.04193012       2.21967682
Cu       2.30146260      11.28581789      -0.00316676
Cu       0.01924766       9.03398715       4.38454815
Cu       0.00328852      11.32564696       6.58922597
Cu       2.25439882       9.04063001       6.63688102
Cu       2.30505509      11.32981875       4.42357776
Cu      -0.01220758       9.01730560       8.83179627
Cu      -0.00929295      11.29455507      11.02288273
Cu       2.27887377       9.02535259      10.98483146
Cu       2.29849344      11.31115439       8.80088027
Cu      -0.00422544       9.03517465      13.21058810
Cu      -0.01143556      11.26780585      15.41361809
Cu       2.30435463       9.03517942      15.41989359
Cu       2.29537075      11.27571901      13.23810633
Cu      -0.00599479       9.09324617      17.64332467
Cu      -0.00011930      11.30216785      19.81131086
Cu       2.26570359       9.03714432      19.81465559
Cu       2.29547108      11.30701960      17.63896420
Cu      -0.00905549      13.54963391       0.03968418
Cu      -0.02049755      15.85345308       2.20810105
Cu       2.29823121      13.56339379       2.22480451
Cu       2.30869032      15.84710808      -0.00054442
Cu      -0.01573541      13.59877557       4.41939691
Cu       0.01363549      15.81083989       6.60784878
Cu       2.29702621      13.57734344       6.59332045
Cu       2.28439802      15.80333489       4.39030322
Cu       0.02647781      13.58561333       8.81045054
Cu       0.02443951      15.83119007      11.02642413
Cu       2.26938490      13.56037252      11.01999735
Cu       2.28695437      15.85751491       8.79532578
Cu       0.02639241      13.58438525      13.24009420
Cu       0.01154163      15.84002849      15.42653003
Cu       2.28587375      13.55825578      15.41647365
Cu       2.23936119      15.87352887      13.23459094
Cu      -0.02277325      13.57228960      17.61741536
Cu       0.02437193      15.83820551      19.83669487
Cu       2.27664445      13.57908381      19.82324857
Cu       2.26199724      15.82218103      17.61492442
Cu       0.00815773      18.08132136      -0.02621411
Cu      -0.01118696      20.34028650       2.20401507
Cu       2.28910274      18.08477195       2.20080436
Cu       2.26674411      20.37557525       0.00522702
Cu      -0.03341916      18.12583944       4.38447106
Cu       0.00475394      20.40042228       6.61233010
Cu       2.33196417      18.09202507       6.59297255
Cu       2.29404253      20.31950892       4.42160451
Cu      -0.02112661      18.11206549       8.83964510
Cu      -0.02648970      20.34063168      11.02330032
Cu       2.27076307      18.10727235      11.01413909
Cu       2.27593707      20.37252140       8.79651148
Cu      -0.06350527      18.08033468      13.22819707
Cu      -0.01260452      20.36555075      15.40585357
Cu       2.30329760      18.08498087      15.41552580
Cu       2.26658620      20.33935998      13.21438189
Cu       0.03263447      18.10657806      17.62506293
Cu      -0.02622614      20.37175712      19.85781385
Cu       2.30614038      18.08976926      19.84255297
Cu       2.29007107      20.36754300      17.63514467
Cu       4.57563694       0.02806314       0.01693791
Cu       4.60731218       2.24360418       2.21933211
Cu       6.84380037       0.01571555       2.20415614
Cu       6.87738426       2.29307916       0.03700985
Cu       4.56554953      -0.00953178       4.40416829
Cu       4.56123485       2.26334340       6.59604331
Cu       6.86507273       0.01110236       6.61701090
Cu       6.89748909       2.25590879       4.39934005
Cu       4.58269308      -0.01124212       8.81419991
Cu       4.60440785       2.24917581      11.00821199
Cu       6.87071331      -0.03127722      11.01839816
Cu       6.86556469       2.28715317       8.84995123
Cu       4.57239954      -0.02225415      13.22164174
Cu       4.56919381       2.23359971      15.41068479
Cu       6.86803572      -0.02851081      15.43528481
Cu       6.86961086       2.25752433      13.23368785
Cu       4.52440453      -0.02308001      17.62839208
Cu       4.61744395       2.21264223      19.83845822
Cu       6.88394362       0.01048656      19.81667498
Cu       6.85710374       2.25657225      17.61219596
Cu       4.59759723       4.52173967      -0.01277133
Cu       4.60348868       6.79664652       2.20188068
Cu       6.85747693       4.51832090       2.23418351
Cu       6.86546666       6.78250650      -0.00575536
Cu       4.59587532       4.52164467       4.42583659
Cu       4.59050873       6.82478596       6.57729602
Cu       6.85212763       4.55812699       6.57371038
Cu       6.89190980       6.76570640       4.42038615
Cu       4.60552324       4.50991950       8.80899799
Cu       4.57295690       6.77178260      11.02318442
Cu       6.85822493       4.53675991      11.00592276
Cu       6.90552854       6.80053659       8.80319231
Cu       4.57405278       4.53562661      13.15317409
Cu       4.59869614       6.80641175      15.40503237
Cu       6.92497491       4.49470719      15.40236796
Cu       6.88218319       6.79910383      13.23612769
Cu       4.57259915       4.48643926      17.62168295
Cu       4.59318740       6.81234461      19.82741676
Cu       6.87140716       4.52304779      19.85037464
Cu       6.88525495       6.80094469      17.61350073
Cu       4.57232660       9.07351033       0.00908924
Cu       4.60043540      11.28495759       2.18591664
Cu       6.90599154       9.06034742       2.23107238
Cu       6.84417322      11.29156500      -0.01221704
Cu       4.62930304       9.06021400       4.40457078
Cu       4.57089954      11.32242271       6.61668883
Cu       6.81286770       9.06730940       6.61503133
Cu       6.91227049      11.29681020       4.38310828
Cu       4.58394670       9.05530992       8.83126964
Cu       4.60587502      11.30390162      11.00790378
Cu       6.90877755       9.01163393      11.01946381
Cu       6.82153748      11.31883750       8.79909846
Cu       4.60690614       9.01950681      13.23930545
Cu       4.57241326      11.29935471      15.42334273
Cu       6.83778436       9.08043757      15.44275090
Cu       6.88341554      11.33770128      13.20880497
Cu       4.58453907       9.06134190      17.60189196
Cu       4.55237339      11.34054821      19.81425726
Cu       6.83501395       9.04000815      19.84010910
Cu       6.87636103      11.30830089      17.64869796
Cu       4.58648160      13.56408029       0.00619291
Cu       4.59850243      15.80736239       2.21533374
Cu       6.91892618      13.54962631       2.20246238
Cu       6.88545672      15.86297570      -0.00126720
Cu       4.57992013      13.57594377       4.44744110
Cu       4.62499606      15.85193175       6.62984484
Cu       6.86897082      13.54448365       6.62090142
Cu       6.88076486      15.82572671       4.43675460
Cu       4.58247103      13.57316655       8.81499112
Cu       4.59323991      15.85915473      11.01730601
Cu       6.89545897      13.56987389      11.02688474
Cu       6.87206415      15.83741805       8.78925848
Cu       4.59074214      13.55588906      13.19679974
Cu       4.56925117      15.85997895      15.43073899
Cu       6.91483935      13.56337710      15.43155353
Cu       6.87910913      15.83080721      13.24871092
Cu       4.60784938      13.56834951      17.61688632
Cu       4.57725459      15.83070867      19.77739616
Cu       6.88298532      13.56143991      19.85458986
Cu       6.86745323      15.83191515      17.65597792
Cu       4.57445507      18.05046109      -0.00190249
Cu       4.60613225      20.35824717       2.20488233
Cu       6.88881654      18.10925872       2.22111370
Cu       6.89096190      20.36212446       0.01446549
Cu       4.59137609      18.10869316       4.41492082
Cu       4.57128855      20.34950940       6.59130614
Cu       6.90115553      18.12493388       6.63235498
Cu       6.86923347      20.35159698       4.44608610
Cu       4.54746926      18.16097148       8.83577723
Cu       4.55948619      20.38714823      11.01704971
Cu       6.84017769      18.08718350      11.02714999
Cu       6.88135492      20.37965657       8.83007135
Cu       4.58870662      18.08959872      13.20004128
Cu       4.54941562      20.35341922      15.42351463
Cu       6.87673912      18.11500821      15.40003712
Cu       6.89135118      20.35978686      13.21803171
Cu       4.56226784      18.10014332      17.63424483
Cu       4.56446420      20.34000304      19.83091081
Cu       6.86287556      18.12509142      19.81342959
Cu       6.88674538      20.38226637      17.63177719
Cu       9.16106357      -0.04798595       0.00868596
Cu       9.11563662       2.24286010       2.18622332
Cu      11.43258029       0.02525012       2.21305953
Cu      11.44675788       2.28775568      -0.04221187
Cu       9.15184456      -0.02127412       4.41782330
Cu       9.15492855       2.27065076       6.60312529
Cu      11.47082708      -0.00841733       6.62497215
Cu      11.47889363       2.25567666       4.39837122
Cu       9.14384898       0.01889674       8.84002946
Cu       9.16380898       2.25723438      11.01974669
Cu      11.44722005      -0.01206532      10.99071656
Cu      11.47880793       2.26324930       8.81249010
Cu       9.17443231      -0.00928735      13.18638215
Cu       9.16649557       2.25895171      15.44929330
Cu      11.49827276      -0.02315302      15.44800332
Cu      11.46004424       2.27128227      13.21621978
Cu       9.17233032      -0.02425650      17.62565285
Cu       9.16182782       2.25007935      19.83966088
Cu      11.42695719       0.02020972      19.81601242
Cu      11.46915276       2.25696196      17.66364025
Cu       9.18976593       4.54022632      -0.00423343
Cu       9.13750872       6.78065622       2.23094252
Cu      11.49832516       4.51795743       2.23644028
Cu      11.45647565       6.78184685       0.01717817
Cu       9.17926792       4.52088465       4.43862844
Cu       9.17771324       6.80999247       6.61723518
Cu      11.45262478       4.53432494       6.61764828
Cu      11.43319791       6.79575725       4.36113483
Cu       9.19375103       4.51874963       8.83844741
Cu       9.16473604       6.77835184      11.02169720
Cu      11.48911288       4.51686546      10.98986658
Cu      11.44653305       6.80976419       8.79852043
Cu       9.15917568       4.53214749      13.23229659
Cu       9.16695085       6.73413367      15.41731219
Cu      11.49587605       4.50310063      15.45464386
Cu      11.43124876       6.79201586      13.21899273
Cu       9.16276778       4.48768905      17.63573491
Cu       9.16770313       6.76614213      19.83828460
Cu      11.47963585       4.54012485      19.79845492
Cu      11.47077411       6.82154927      17.65286311
Cu       9.17654953       9.10142073      -0.02360655
Cu       9.16138630      11.32003675       2.18400361
Cu      11.50565385       9.01406136       2.17948716
Cu      11.45587819      11.29976764      -0.03719915
Cu       9.19130433       9.03089089       4.41957011
Cu       9.16501505      11.31395432       6.60801044
Cu      11.49304832       9.03448839       6.62853110
Cu      11.47337789      11.30701902       4.43327236
Cu       9.15917916       9.05838034       8.83437124
Cu       9.16234893      11.32685623      11.01543981
Cu      11.44141699       9.06281867      11.01542027
Cu      11.43448910      11.30287317       8.81464423
Cu       9.17499056       9.01931044      13.25516580
Cu       9.15307399      11.30666322      15.41142634
Cu      11.42100642       9.06588496      15.44586922
Cu      11.43089489      11.30489425      13.21315574
Cu       9.18817665       9.02361311      17.62528777
Cu       9.15840904      11.32435042      19.81541033
Cu      11.45361626       9.03766794      19.85850619
Cu      11.43759508      11.32822220      17.63317491
Cu       9.16198524      13.59782569       0.02209888
Cu       9.17962987      15.85550423       2.20302538
Cu      11.46995698      13.58061197       2.21442694
Cu      11.43136052      15.84489152      -0.01385099
Cu       9.16499585      13.57384835       4.41085274
Cu       9.16974696      15.86446994       6.60069861
Cu      11.47230312      13.57876782       6.58181122
Cu      11.43069803      15.84630993       4.40985339
Cu       9.11909349      13.56008957       8.82832408
Cu       9.20917348      15.81970007      11.01772063
Cu      11.45757130      13.56937402      10.99862288
Cu      11.46138240      15.82680063       8.80057547
Cu       9.13131420      13.56966162      13.21312465
Cu       9.18142923      15.81147920      15.41466083
Cu      11.46617310      13.55692904      15.43616003
Cu      11.47310126      15.83027082      13.23166293
Cu       9.19692907      13.54431714      17.63490721
Cu       9.18785021      15.84529753      19.84866366
Cu      11.46478995      13.58591687      19.84794308
Cu      11.48031913      15.83277340      17.62759558
Cu       9.17083952      18.10672594      -0.00460255
Cu       9.18165230      20.36471991       2.21220350
Cu      11.41243853      18.10980322       2.18980750
Cu      11.45564799      20.37293013       0.01371191
Cu       9.20436277      18.08137468       4.41281962
Cu       9.17597619      20.35624788       6.58382399
Cu      11.44533484      18.11927989       6.61722791
Cu      11.44128884      20.35781912       4.40250852
Cu       9.16513970      18.08511596       8.85619324
Cu       9.21444478      20.40029266      11.03373774
Cu      11.46585708      18.07218906      11.00800161
Cu      11.46763858      20.36005989       8.79341730
Cu       9.18706359      18.10826896      13.18959798
Cu       9.17743141      20.38061568      15.43580274
Cu      11.43133278      18.06201713      15.40740456
Cu      11.50189769      20.34628537      13.20678505
Cu       9.15356282      18.13139883      17.65319287
Cu       9.14840836      20.36444183      19.82647557
Cu      11.45803808      18.10827947      19.85745300
Cu      11.45497673      20.33767742      17.61463536
Cu      13.75204472       0.00226754       0.02636327
Cu      13.74171581       2.27392520       2.21429470
Cu      16.01893817      -0.00677192       2.19147427
Cu      16.03184180       2.28816997       0.02234394
Cu      13.77757162       0.01609104       4.39406895
Cu      13.74302890       2.27894710       6.61701632
Cu      16.03948133      -0.02557423       6.61016957
Cu      16.02128071       2.23249211       4.40039874
Cu      13.77740650      -0.01623563       8.83351723
Cu      13.76213944       2.26656194      11.03390253
Cu      16.03180570       0.01929588      11.01422469
Cu      16.02199652       2.28196113       8.82350574
Cu      13.76678243       0.01657633      13.26100562
Cu      13.75271589       2.23395030      15.39927818
Cu      16.02578064       0.00909963      15.43183076
Cu      16.04018864       2.30006530      13.22770023
Cu      13.77128381       0.00031869      17.58443341
Cu      13.70312077       2.27222940      19.84028882
Cu      16.07252931       0.01732590      19.83408149
Cu      16.05770466       2.25768005      17.60931185
Cu      13.75341649       4.51705172      -0.03442118
Cu      13.76035863       6.80286397       2.19725647
Cu      16.06015875       4.50832961       2.20798641
Cu      16.05341169       6.77656288       0.01284269
Cu      13.76229651       4.54637748       4.38248715
Cu      13.75725721       6.77874948       6.61088091
Cu      16.04541894       4.50445863       6.60063200
Cu      16.05166882       6.77648499       4.43771425
Cu      13.74614631       4.56198083       8.81941710
Cu      13.74156990       6.79249215      11.00484331
Cu      16.03834387       4.54701110      11.01206038
Cu      16.05051403       6.80249049       8.82909778
Cu      13.73185779       4.54909310      13.22671156
Cu      13.76097049       6.80620542      15.39963157
Cu      16.00045923       4.51575745      15.42636096
Cu      16.02669467       6.78179029      13.21428897
Cu      13.76515734       4.52147251      17.66439919
Cu      13.75309496       6.78178742      19.81952139
Cu      16.05011140       4.48956458      19.84443180
Cu      16.04754583       6.78382841      17.65013629
Cu      13.74958786       9.06610890      -0.03785317
Cu      13.74633664      11.31325051       2.18824413
Cu      16.05814272       9.04687059       2.20695953
Cu      16.06121630      11.34484707      -0.00046648
Cu      13.75848453       9.03435922       4.39881824
Cu      13.76493846      11.27365440       6.57501503
Cu      16.05011176       9.04289731       6.61602486
Cu      16.00398482      11.28026231       4.44838046
Cu      13.76866147       9.07973337       8.82337801
Cu      13.75076032      11.31451749      11.06171955
Cu      16.02973292       9.03628234      11.03583029
Cu      16.03055210      11.31440250       8.79989281
Cu      13.76041767       9.03775887      13.22319291
Cu      13.74183646      11.31751788      15.40112020
Cu      16.02972560       9.05573186      15.43521665
Cu      16.04231485      11.30670762      13.20869095
Cu      13.77480699       9.07477130      17.62138875
Cu      13.77893401      11.31327108      19.82941000
Cu      16.06177833       9.05589821      19.81546753
Cu      16.07849000      11.30106762      17.64463548
Cu      13.76850028      13.56259862      -0.04044159
Cu      13.71464019      15.86088529       2.21607160
Cu      16.08056564      13.55648131       2.20721008
Cu      16.03540925      15.84332925      -0.01964923
Cu      13.74330355      13.58856892       4.42156110
Cu      13.74640532      15.82702753       6.59066457
Cu      16.04710355      13.54771801       6.58947626
Cu      16.05232946      15.83130131       4.41729210
Cu      13.75410586      13.54522006       8.82366771
Cu      13.76092991      15.85310812      11.00762056
Cu      16.02255755      13.58113799      11.02003076
Cu      16.05148213      15.81606125       8.80787275
Cu      13.73706093      13.59436244      13.22854056
Cu      13.75815910      15.82736711      15.44928653
Cu      16.03805161      13.53911594      15.39031254
Cu      16.04376784      15.84872656      13.22695914
Cu      13.73904861      13.56125142      17.62421157
Cu      13.74722409      15.84848001      19.83206343
Cu      16.06934005      13.54578571      19.83524638
Cu      16.04892303      15.85404218      17.63677117
Cu      13.74694287      18.11566393       0.00085706
Cu      13.73419204      20.34168138       2.19756802
Cu      16.02893439      18.09270512       2.22186391
Cu      16.07914990      20.36325026       0.03035303
Cu      13.76280647      18.09019324       4.40280674
Cu      13.73869845      20.36517547       6.57989132
Cu      16.05275698      18.09005832       6.57536516
Cu      16.05224829      20.36934786       4.41382413
Cu      13.73928949      18.10937299       8.79557513
Cu      13.73476249      20.36522128      11.02779828
Cu      16.02663332      18.10028689      11.00925130
Cu      16.04604554      20.33296620       8.83838723
Cu      13.74444358      18.12420999      13.22919367
Cu      13.73326619      20.38172995      15.43010893
Cu      16.06951474      18.11084771      15.45413357
Cu      16.04249230      20.37086236      13.15252460
Cu      13.75084694      18.09087330      17.59681080
Cu      13.75788441      20.37243752      19.82337211
Cu      16.04864442      18.10375489      19.81767702
Cu      16.04448604      20.35477202      17.62874083
Cu      18.33114463      -0.02505501      -0.01579513
Cu      18.30939422       2.23087366       2.21338255
Cu      20.64213491       0.04507459       2.19446082
Cu      20.63560215       2.27406327      -0.00133354
Cu      18.34453290       0.01147850       4.41717486
Cu      18.34531929       2.21989862       6.61747060
Cu      20.61798661       0.00563233       6.62352713
Cu      20.61818072       2.27206600       4.41904597
Cu      18.36265509       0.03106570       8.79489452
Cu      18.35106022       2.26668182      11.02199460
Cu      20.62080136       0.02442932      11.00107152
Cu      20.62389586       2.21737635       8.81307875
Cu      18.34939950       0.04160231      13.24381594
Cu      18.32519186       2.26296742      15.40246081
Cu      20.59930745       0.00625481      15.39990734
Cu      20.63502548       2.25077057      13.23491010
Cu      18.36645453       0.03862911      17.64490851
Cu      18.33319257       2.26427288      19.84886504
Cu      20.62389067      -0.01697029      19.86185831
Cu      20.62943589       2.25928226      17.64070793
Cu      18.34961715       4.54487864       0.00382796
Cu      18.35404338       6.79694894       2.21426485
Cu      20.63429245       4.52543367       2.17944142
Cu      20.64522289       6.79103515       0.01618814
Cu      18.34373758       4.51957580       4.41004005
Cu      18.33275668       6.78929617       6.62800996
Cu      20.58555261       4.57196602       6.61700194
Cu      20.64457242       6.75884457       4.43165593
Cu      18.34311061       4.51452908       8.84974861
Cu      18.34931691       6.81073972      11.01880452
Cu      20.65958590       4.53119871      10.99478545
Cu      20.61033758       6.78942120       8.80578610
Cu      18.34708598       4.53687111      13.24711395
Cu      18.33317336       6.80720232      15.44688632
Cu      20.63715377       4.55866566      15.39939209
Cu      20.63615282       6.79069204      13.21746400
Cu      18.31181654       4.50403936      17.63873175
Cu      18.32607184       6.78472777      19.83880285
Cu      20.62889733       4.52372422      19.83273963
Cu      20.65217440       6.75576744      17.64841396
Cu      18.32349238       9.05022427       0.02099584
Cu      18.35601185      11.29724741       2.18150010
Cu      20.64602029       9.04579983       2.22850719
Cu      20.61562492      11.28457003      -0.02788028
Cu      18.37668013       9.03190158       4.38656399
Cu      18.36313598      11.30517294       6.60760068
Cu      20.64609104       9.01974880       6.58810008
Cu      20.63643670      11.29829079       4.39431607
Cu      18.36568289       9.04492890       8.83005765
Cu      18.33922819      11.30699337      11.03958769
Cu      20.59158697       9.05393156      11.00875643
Cu      20.62208766      11.32009135       8.79532503
Cu      18.35336031       9.05135871      13.21882600
Cu      18.33824290      11.32454841      15.43414654
Cu      20.62088214       9.07551617      15.39124797
Cu      20.59955660      11.33863558      13.21706118
Cu      18.31422302       9.06003502      17.63192890
Cu      18.32944620      11.27957354      19.83478327
Cu      20.63021127       9.01559404      19.85683778
Cu      20.63752769      11.26664832      17.62311051
Cu      18.34861697      13.57293679       0.00607289
Cu      18.30948925      15.82531657       2.19663692
Cu      20.62923053      13.53734672       2.22922232
Cu      20.61741329      15.85657628      -0.01454686
Cu      18.33501075      13.56989150       4.40095707
Cu      18.31570468      15.84393904       6.57343381
Cu      20.66306355      13.63455405       6.62953534
Cu      20.63757141      15.82766880       4.38766085
Cu      18.33580247      13.59121941       8.87797431
Cu      18.32927128      15.83535923      11.01932955
Cu      20.62560560      13.56339037      11.03371565
Cu      20.64500568      15.87274476       8.80832210
Cu      18.36878190      13.57538084      13.24305698
Cu      18.36144390      15.84318520      15.36376555
Cu      20.61307418      13.57399182      15.41505109
Cu      20.62731861      15.82232739      13.23897258
Cu      18.34470809      13.58956085      17.61742228
Cu      18.36304154      15.82345145      19.83103703
Cu      20.62720458      13.55432406      19.80757267
Cu      20.66901684      15.85079075      17.63317722
Cu      18.33925993      18.08660402      -0.01647239
Cu      18.32399706      20.34168419       2.23675355
Cu      20.62400341      18.07244335       2.21386209
Cu      20.60576365      20.37175636      -0.04811849
Cu      18.35742298      18.10857705       4.41161296
Cu      18.34536016      20.37017612       6.60253341
Cu      20.66246984      18.09775486       6.60594006
Cu      20.63032796      20.38059840       4.44472092
Cu      18.34224089      18.11048956       8.78642471
Cu      18.32758399      20.37163169      11.01986627
Cu      20.64492702      18.10303192      10.99061389
Cu      20.63273306      20.33737943       8.79613945
Cu      18.36571918      18.08317435      13.22090522
Cu      18.33946027      20.31902452      15.45782418
Cu      20.61235141      18.10591968      15.46255265
Cu      20.63568187      20.38959378      13.20716796
Cu      18.35616472      18.12763833      17.62827158
Cu      18.35227265      20.34586068      19.84980984
Cu      20.60571953      18.12877158      19.78788218
Cu      20.62845120      20.35503999      17.62488854
