654
Lattice="75.23233092067557 0.0 0.0 0.0 75.23233092067557 0.0 0.0 0.0 75.23233092067557" Properties=species:S:1:pos:R:3 id=sample_000210 pbc="T T T"
Al      23.56083283      23.57236243      23.65241013
Al      25.57229593      25.61101487      23.58770674
Al      27.61900611      27.64236624      23.61479277
Al      29.62971744      29.62090592      23.56177322
Al      31.69818527      31.64512069      23.57969698
Al      33.70116078      33.71760613      23.55293153
Al      35.70238714      35.75822555      23.55558700
Al      37.73271627      37.77389524      23.63389307
Al      39.76873975      39.80719937      23.57462917
Al      41.77408624      41.79000680      23.56281319
Al      43.82517758      43.78733224      23.54879897
Al      45.85327160      45.87550687      23.58802445
Al      47.87987685      47.86059225      23.60609580
Al      25.59837600      23.54279913      25.55432201
Al      27.61694700      25.58007550      25.56908013
Al      29.64161945      27.61655901      25.60622789
Al      31.68496925      29.65920256      25.58663530
Al      33.69875793      31.67146021      25.55909057
Al      35.67770173      33.69094405      25.57680890
Al      37.68281544      35.72848105      25.60931270
Al      39.78233675      37.74115746      25.61006338
Al      41.79960095      39.71891262      25.59442269
Al      43.79614623      41.77526615      25.59265582
Al      45.85836651      43.80349261      25.61018402
Al      47.86781581      45.82268570      25.54545827
Al      27.61768373      23.57410262      27.59260304
Al      29.61619835      25.56786657      27.66003248
Al      31.67952010      27.62441864      27.68858465
Al      33.67837662      29.63133140      27.64487386
Al      35.69836965      31.65551760      27.62930636
Al      37.75536423      33.65620778      27.61883353
Al      39.83238599      35.70533822      27.66676113
Al      41.82217123      37.72920550      27.62803473
Al      43.84563687      39.78256479      27.55866929
Al      45.81245106      41.79925199      27.59409900
Al      47.86886522      43.85726820      27.62199045
Al      49.88689440      45.83368812      27.64732064
Al      29.63563653      23.56215606      29.61046105
Al      31.63062500      25.57593752      29.63456126
Al      33.68898140      27.62521710      29.61083765
Al      35.72237830      29.63899687      29.65423305
Al      37.79657724      31.66650139      29.68015268
Al      39.75771497      33.68992853      29.65212479
Al      41.82072786      35.73764368      29.66265976
Al      43.82833259      37.75144606      29.65452306
Al      45.85240445      39.76180176      29.60450598
Al      47.83298385      41.77314748      29.63801652
Al      49.87012927      43.82860931      29.67312775
Al      31.65445710      23.55669031      31.66172531
Al      33.73316776      25.57965399      31.64606900
Al      35.69175571      27.60555415      31.66084181
Al      37.75623470      29.68688931      31.69578870
Al      39.78460162      31.65074296      31.65861541
Al      41.79620459      33.70836812      31.67349613
Al      43.86467129      35.69324635      31.62708468
Al      45.86795391      37.76130695      31.71231616
Al      47.85813419      39.79508049      31.63537747
Al      49.88451899      41.80793886      31.69584692
Al      33.68648998      23.59118596      33.69954889
Al      35.70549473      25.56993880      33.70668652
Al      37.78063702      27.63333515      33.73817674
Al      39.71477650      29.66448313      33.65797203
Al      41.78902298      31.67627748      33.70372994
Al      43.79935760      33.69041471      33.71383979
Al      45.82270972      35.68052951      33.66834384
Al      47.90461411      37.77906295      33.68926459
Al      49.92537201      39.77660795      33.65776766
Al      51.92382285      41.75975165      33.66144206
Al      35.65688225      23.54430101      35.71280776
Al      37.77079476      25.61900861      35.72432689
Al      39.83674046      27.63246261      35.68971886
Al      41.82999671      29.67554808      35.75022404
Al      43.87839369      31.68621405      35.74940306
Al      45.85436762      33.69328635      35.74966463
Al      47.88278372      35.72113044      35.74681012
Al      49.89395409      37.76045514      35.75238082
Al      51.88492554      39.78110865      35.74165206
Al      37.74557603      23.55581659      37.72540602
Al      39.77129027      25.58437795      37.75269177
Al      41.80056933      27.60341910      37.76753831
Al      43.80359196      29.67516248      37.72156697
Al      45.79614401      31.66616085      37.75101574
Al      47.86392670      33.64215116      37.76003938
Al      49.85139058      35.69795359      37.74431161
Al      51.89345962      37.76102634      37.77260567
Al      39.79522859      23.55576118      39.76759343
Al      41.77599516      25.57765290      39.78682858
Al      43.82516652      27.60101704      39.78281315
Al      45.84744898      29.66721213      39.78925376
Al      47.90435104      31.66982480      39.78332326
Al      49.90040532      33.65009120      39.73982070
Al      51.90225742      35.68799902      39.73303244
Al      41.79023067      23.56417563      41.83266674
Al      43.80875777      25.62609552      41.80620873
Al      45.83015404      27.61107534      41.76312382
Al      47.88909176      29.64294014      41.74874654
Al      49.87783489      31.66980620      41.78719122
Al      51.90441363      33.65950957      41.81566561
Al      43.77433904      23.56483527      43.85402147
Al      45.90927020      25.63591052      43.89773071
Al      47.83940500      27.58716754      43.78909270
Al      49.94468876      29.60223838      43.87401920
Al      45.84384388      23.56082028      45.83068707
Al      47.86823244      25.57760003      45.81584603
Al      49.88452230      27.63893669      45.89511491
Al      47.88918753      23.60402120      47.88281068
Al      23.55862266      25.61759500      25.59057807
Al      25.59195515      27.59092801      25.60515311
Al      27.60922868      29.65879988      25.53896737
Al      29.68594339      31.68509685      25.60937922
Al      31.68084533      33.70737698      25.57797980
Al      33.70839975      35.72199624      25.56741268
Al      35.74857151      37.71764834      25.62582739
Al      37.71649196      39.78267937      25.61768155
Al      39.77910095      41.77778908      25.58108537
Al      41.78465614      43.80938689      25.61594328
Al      43.84890672      45.83749317      25.64220003
Al      45.86671987      47.84184875      25.55516122
Al      25.58478370      25.60993048      27.59389251
Al      27.62705481      27.65803135      27.64474225
Al      29.66491749      29.66921352      27.65940929
Al      31.67702813      31.68848091      27.61745015
Al      33.71150963      33.72418234      27.57956590
Al      35.73612937      35.71601919      27.62177843
Al      37.75247924      37.72679471      27.59945415
Al      39.75355608      39.75442772      27.65660784
Al      41.83427621      41.77477733      27.59849290
Al      43.83694501      43.86307041      27.63262065
Al      45.83385381      45.80195235      27.59730257
Al      47.82584484      47.85290872      27.60292220
Al      27.64073718      25.59954947      29.61213120
Al      29.68851850      27.61008786      29.61271132
Al      31.68618136      29.66156567      29.63503954
Al      33.67561973      31.65807669      29.64246426
Al      35.70286606      33.70036398      29.65116690
Al      37.70753286      35.75718141      29.61820222
Al      39.76828591      37.76349365      29.71987827
Al      41.85828182      39.73645016      29.69049539
Al      43.81445174      41.78039462      29.64226221
Al      45.86319483      43.83771502      29.70437204
Al      47.85449084      45.82891656      29.65996620
Al      29.64266758      25.59654053      31.65410814
Al      31.62555096      27.63424163      31.64688310
Al      33.72170590      29.64477311      31.67625630
Al      35.68425208      31.63584495      31.67066325
Al      37.77339269      33.66374433      31.65858638
Al      39.78704553      35.66404746      31.69935236
Al      41.84000428      37.76535223      31.69325303
Al      43.81232837      39.80554204      31.61972285
Al      45.83287641      41.80742217      31.64028406
Al      47.84222772      43.79248678      31.68232241
Al      49.88013343      45.86813220      31.67607321
Al      31.61828140      25.63142701      33.70904024
Al      33.71309283      27.61423850      33.72732320
Al      35.68973533      29.61816182      33.68635694
Al      37.74925988      31.67387278      33.70793466
Al      39.82026673      33.70938559      33.70610865
Al      41.78060772      35.74183154      33.73834517
Al      43.82316005      37.74425582      33.67543645
Al      45.84533578      39.73903715      33.71125480
Al      47.87824546      41.79638657      33.70394879
Al      49.88974133      43.82275218      33.65981875
Al      33.73404575      25.61723829      35.74530825
Al      35.72078279      27.60013554      35.72058115
Al      37.76484868      29.63764626      35.67222126
Al      39.77781337      31.62154070      35.68104183
Al      41.75400837      33.73591284      35.76523307
Al      43.81574036      35.71321430      35.72997809
Al      45.90025732      37.75905031      35.69761014
Al      47.91686655      39.73890788      35.72763954
Al      49.92716766      41.76709896      35.68417774
Al      35.76917562      25.60914780      37.75020510
Al      37.73910561      27.62266172      37.77866924
Al      39.79777732      29.65396437      37.74992077
Al      41.79664602      31.67651590      37.73687568
Al      43.80238067      33.67563173      37.70657081
Al      45.79778210      35.72213212      37.77302654
Al      47.87674877      37.80209225      37.81152575
Al      49.88763075      39.76651730      37.71444872
Al      37.70079803      25.58050435      39.76455598
Al      39.78199479      27.63233784      39.80517527
Al      41.81310945      29.64546863      39.74977737
Al      43.79611540      31.70175907      39.75549300
Al      45.86769739      33.70731020      39.77457834
Al      47.88810428      35.72136903      39.76913058
Al      49.93288502      37.72887519      39.75241805
Al      39.77865172      25.60220570      41.81140939
Al      41.81523821      27.63959196      41.82650596
Al      43.82428017      29.62703147      41.78596152
Al      45.83427460      31.64987502      41.80679740
Al      47.92027787      33.72640016      41.77757990
Al      49.87598927      35.73041846      41.81240989
Al      41.82266069      25.62262748      43.80681182
Al      43.83396657      27.62948925      43.80703646
Al      45.86478704      29.65835571      43.82012035
Al      47.88915284      31.68977847      43.81164747
Al      49.90638096      33.61922256      43.80728915
Al      43.83397012      25.60859136      45.83410855
Al      45.87152085      27.60629604      45.84198024
Al      47.88624733      29.63608212      45.81291900
Al      49.96319111      31.74224358      45.85460203
Al      45.83788128      25.60697855      47.86294452
Al      47.84077862      27.65550338      47.86386289
Al      23.53855535      27.65767902      27.61432924
Al      25.59368622      29.65128081      27.61281254
Al      27.67758770      31.67427704      27.60317252
Al      29.61897455      33.69927235      27.59944721
Al      31.66920701      35.74255191      27.60611362
Al      33.70470650      37.72957818      27.58801901
Al      35.71471485      39.73021284      27.66494636
Al      37.78049995      41.83043624      27.64366974
Al      39.77057090      43.83920762      27.61070877
Al      41.75338712      45.81701214      27.61316864
Al      43.86186089      47.89676738      27.60260943
Al      45.76649412      49.92835044      27.62404694
Al      25.57609782      27.63581501      29.65537570
Al      27.57495636      29.61591714      29.68906214
Al      29.58871417      31.69924806      29.66318728
Al      31.65725040      33.69701990      29.69347855
Al      33.71545223      35.65578127      29.66604348
Al      35.69509567      37.73555857      29.65055051
Al      37.75015459      39.74728438      29.65306697
Al      39.76420526      41.77532476      29.60147706
Al      41.79042872      43.78990809      29.64282463
Al      43.79136284      45.80299227      29.61511016
Al      45.86386505      47.88037303      29.63689731
Al      27.62576275      27.62068112      31.61719632
Al      29.66601616      29.64178410      31.66527923
Al      31.69010567      31.69334743      31.62794340
Al      33.70816554      33.65884366      31.72341420
Al      35.74480331      35.72030625      31.64840435
Al      37.71016988      37.73802422      31.70023515
Al      39.79265075      39.81006565      31.66904727
Al      41.76758842      41.79241416      31.65884905
Al      43.81418128      43.83987770      31.66720826
Al      45.80885198      45.86308414      31.66347793
Al      47.88448090      47.94794051      31.68054547
Al      29.66362510      27.64622999      33.69704715
Al      31.71189059      29.66412747      33.65385521
Al      33.69828106      31.65134108      33.69096173
Al      35.72093419      33.72228548      33.65498057
Al      37.74919365      35.76061493      33.66692293
Al      39.75669531      37.70674186      33.70926185
Al      41.77196234      39.73728461      33.70433119
Al      43.81771989      41.76291642      33.70542505
Al      45.86838778      43.82569893      33.69282706
Al      47.87302948      45.85414649      33.68493020
Al      31.70785202      27.58180988      35.73788344
Al      33.72388887      29.64825134      35.75067380
Al      35.72503233      31.65481184      35.72189883
Al      37.73180505      33.70027577      35.71971074
Al      39.75972812      35.69351548      35.69229569
Al      41.84082171      37.70764480      35.72087300
Al      43.79627178      39.78749508      35.74929689
Al      45.85381767      41.78172358      35.73891766
Al      47.85680567      43.82971592      35.70409586
Al      33.67148724      27.62237427      37.71521037
Al      35.69352500      29.66257843      37.75290171
Al      37.74578594      31.68865791      37.71712880
Al      39.76373918      33.71654328      37.74721149
Al      41.78371828      35.73865799      37.72694003
Al      43.78956143      37.76601713      37.78470066
Al      45.85009584      39.80173727      37.76519016
Al      47.80990772      41.81086398      37.75142865
Al      35.70418306      27.57624905      39.83184240
Al      37.74489969      29.59790325      39.80427362
Al      39.74742073      31.68333696      39.76791871
Al      41.79260599      33.68490191      39.75061537
Al      43.79817921      35.74505818      39.78222725
Al      45.82351530      37.74578811      39.79025477
Al      47.85008355      39.78525454      39.80761795
Al      37.75099233      27.58334150      41.79719471
Al      39.76899056      29.68757417      41.81559445
Al      41.81998179      31.64583941      41.83031436
Al      43.83182460      33.67515011      41.79321999
Al      45.82724065      35.68657078      41.82505036
Al      47.90387630      37.68521714      41.77430714
Al      39.74658324      27.59991610      43.80395975
Al      41.77096026      29.62903350      43.82339194
Al      43.82356583      31.66573509      43.80127776
Al      45.83127800      33.68244533      43.83566349
Al      47.83306356      35.73468504      43.80873567
Al      41.77849337      27.61321750      45.82886159
Al      43.80301840      29.64325395      45.80495513
Al      45.86590332      31.69107862      45.86359452
Al      47.83143499      33.66380521      45.87422050
Al      43.85990557      27.64985948      47.85313915
Al      45.86242897      29.67399979      47.86781147
Al      47.87592319      31.64499386      47.88848619
Al      45.87832088      27.65364699      49.87993307
Al      23.57877689      29.69013993      29.59351957
Al      25.57117360      31.67925996      29.67616939
Al      27.58179877      33.63055903      29.59630670
Al      29.67297065      35.73073603      29.64993870
Al      31.67281371      37.71126330      29.63351381
Al      33.69556310      39.73008766      29.68385797
Al      35.72686037      41.83524364      29.61616990
Al      37.80562150      43.78928894      29.61120150
Al      39.75727525      45.84775188      29.69617316
Al      41.77634119      47.89331962      29.59816752
Al      43.81141586      49.87167463      29.62899220
Al      25.58539176      29.61713342      31.65922068
Al      27.65657015      31.69347992      31.69321821
Al      29.66947683      33.71656105      31.66541881
Al      31.65812046      35.69238195      31.62787026
Al      33.72827113      37.77340265      31.67985583
Al      35.72792095      39.71480705      31.71144345
Al      37.77751539      41.78156618      31.71572795
Al      39.74874773      43.85958208      31.66610552
Al      41.82172285      45.83624448      31.67647854
Al      43.84094264      47.83122697      31.66989232
Al      45.82851674      49.89384896      31.70103170
Al      27.59377468      29.64025564      33.69651994
Al      29.64278539      31.72262201      33.63691969
Al      31.69607675      33.70283700      33.71373940
Al      33.69916605      35.71541812      33.71162509
Al      35.73210955      37.73502675      33.69266854
Al      37.71548148      39.80120431      33.69208296
Al      39.71181574      41.83793157      33.68076760
Al      41.81111312      43.84129907      33.69548100
Al      43.84566903      45.82860525      33.71637950
Al      45.80194014      47.85798809      33.71402053
Al      29.63481829      29.70627641      35.72170586
Al      31.62207970      31.65543481      35.73738670
Al      33.70012081      33.65793203      35.74962142
Al      35.73599081      35.70532063      35.73653116
Al      37.76925636      37.75558951      35.70355144
Al      39.84864580      39.78876402      35.73894005
Al      41.79464899      41.77788801      35.70108043
Al      43.83862784      43.82718176      35.71107845
Al      45.86132002      45.82410850      35.73807204
Al      31.63015378      29.68998538      37.76913570
Al      33.72874012      31.66650297      37.73349906
Al      35.74248279      33.66951127      37.73413102
Al      37.75644971      35.70946634      37.69197120
Al      39.80767932      37.71113358      37.78245778
Al      41.81857509      39.76128560      37.79443114
Al      43.80785694      41.73175673      37.72556738
Al      45.87827295      43.76581484      37.73150885
Al      33.70314702      29.67755819      39.74776324
Al      35.73388840      31.64913637      39.75824380
Al      37.76078688      33.68872520      39.73909661
Al      39.79246600      35.67844674      39.75773826
Al      41.79633177      37.76425173      39.76369913
Al      43.86549731      39.81346443      39.79291346
Al      45.86361598      41.77002517      39.75395227
Al      47.88770066      43.82075962      39.78665762
Al      35.70617082      29.63792818      41.77904441
Al      37.73172920      31.70250169      41.80582917
Al      39.81326111      33.72186736      41.78079573
Al      41.80489375      35.76446282      41.81313947
Al      43.83729227      37.73892682      41.83161204
Al      45.84348456      39.77715554      41.78269385
Al      47.84291461      41.80397850      41.76578012
Al      37.77600187      29.66712181      43.82616095
Al      39.79683805      31.67751798      43.82725543
Al      41.82565181      33.68564316      43.78580340
Al      43.85598867      35.70814240      43.82237585
Al      45.81985117      37.76971290      43.83291718
Al      47.87106927      39.72498479      43.81734618
Al      39.80106719      29.63121991      45.87669319
Al      41.79154247      31.64825521      45.86408542
Al      43.82152181      33.69920870      45.83861109
Al      45.85509970      35.70725804      45.83901104
Al      41.78860069      29.63341330      47.86822502
Al      43.78146384      31.66273876      47.85826060
Al      45.82462961      33.75422170      47.87678191
Al      43.84752347      29.67563221      49.91316076
Al      45.86574983      31.67014945      49.83048128
Al      23.56120901      31.69423773      31.64740456
Al      25.57566899      33.71683915      31.66161270
Al      27.63684287      35.68879033      31.67141364
Al      29.68966524      37.77596957      31.64802451
Al      31.68553834      39.77425593      31.68586569
Al      33.68735371      41.84809366      31.68825482
Al      35.74081733      43.84616251      31.64070744
Al      37.78707776      45.79076812      31.67913641
Al      39.76429730      47.86885882      31.64478576
Al      41.79892640      49.93715500      31.66202896
Al      25.63290205      31.65969009      33.72495406
Al      27.58827385      33.69347825      33.65691186
Al      29.65822230      35.73397664      33.71431052
Al      31.70011251      37.71291314      33.73956421
Al      33.70627169      39.79788225      33.68158889
Al      35.70749176      41.79111120      33.70088842
Al      37.74734503      43.83128806      33.72041675
Al      39.74405831      45.83596698      33.71197751
Al      41.78422173      47.85905829      33.66995181
Al      43.82822803      49.85903713      33.72695221
Al      27.60493894      31.68095636      35.71687689
Al      29.63540168      33.68042677      35.72477352
Al      31.60321840      35.72318328      35.67685259
Al      33.73673717      37.74612041      35.70879038
Al      35.72071480      39.84291620      35.72989298
Al      37.78545327      41.79271932      35.74932153
Al      39.72250331      43.83580342      35.72973306
Al      41.82751065      45.84547651      35.69189153
Al      43.80224731      47.84975011      35.70578752
Al      29.66489247      31.69302515      37.73280677
Al      31.67618003      33.73106765      37.74466593
Al      33.74797281      35.74026470      37.70522972
Al      35.73077390      37.76171088      37.74082835
Al      37.75522900      39.78001250      37.72795906
Al      39.78720233      41.78708772      37.75750919
Al      41.78302327      43.82419145      37.76760257
Al      43.76360762      45.84281163      37.78789932
Al      31.67396838      31.66111913      39.79081416
Al      33.68802549      33.71377719      39.79398282
Al      35.73790747      35.72118841      39.70869986
Al      37.78762652      37.75308614      39.76866455
Al      39.75896198      39.81521289      39.76457589
Al      41.75012688      41.78501189      39.73068049
Al      43.84232163      43.84744429      39.80026706
Al      45.82611471      45.83275688      39.79402979
Al      33.71116268      31.69481041      41.78879620
Al      35.74264248      33.67889926      41.77304364
Al      37.75783536      35.71759265      41.82473569
Al      39.78477817      37.72503744      41.77156186
Al      41.78654130      39.78919900      41.83027403
Al      43.81174536      41.76588922      41.80325134
Al      45.84996485      43.79728093      41.77253208
Al      35.70069631      31.71107501      43.80804036
Al      37.76247592      33.70502219      43.80402576
Al      39.82324629      35.71006762      43.83062290
Al      41.79798751      37.74689277      43.80193963
Al      43.82331383      39.77906374      43.81857416
Al      45.83727461      41.76774101      43.80785748
Al      37.69458020      31.67305579      45.86755069
Al      39.79545236      33.72172775      45.83852193
Al      41.78349680      35.72183911      45.86910825
Al      43.82655301      37.74668186      45.83022089
Al      45.82444656      39.84224541      45.84000570
Al      39.74999922      31.65382809      47.82284031
Al      41.76842754      33.70188303      47.85256947
Al      43.82635602      35.70300623      47.87652070
Al      41.74145509      31.69663364      49.89276391
Al      43.80495958      33.65529368      49.87027335
Al      23.57522377      33.67987653      33.68501372
Al      25.60413397      35.74824783      33.69819011
Al      27.58993013      37.71270645      33.66774894
Al      29.61516494      39.74978660      33.69318303
Al      31.73678525      41.81762405      33.73265089
Al      33.67202125      43.80964762      33.68026019
Al      35.72715722      45.83353781      33.67829559
Al      37.79115883      47.93409115      33.71225121
Al      39.77532533      49.92741051      33.73820868
Al      41.76176769      51.89871119      33.68088562
Al      25.58707734      33.70191166      35.70488644
Al      27.66546634      35.64642765      35.69881955
Al      29.64724625      37.74213438      35.71717119
Al      31.67421235      39.72972428      35.68207571
Al      33.68387844      41.79433390      35.72805500
Al      35.72133407      43.85373121      35.70120290
Al      37.72719308      45.83815763      35.74674267
Al      39.72541341      47.84360411      35.73402325
Al      41.76955217      49.86947641      35.67028126
Al      27.59086747      33.69513202      37.74937563
Al      29.61233853      35.70712187      37.73092938
Al      31.68483453      37.75915094      37.75464780
Al      33.71221214      39.75577463      37.73436253
Al      35.70374078      41.83070841      37.73798454
Al      37.72616878      43.80731979      37.73348991
Al      39.78001508      45.79395941      37.73574792
Al      41.75613278      47.93207782      37.75674257
Al      29.69504474      33.73119134      39.76505658
Al      31.65703284      35.71452792      39.79806210
Al      33.67648665      37.72383042      39.79862541
Al      35.74740458      39.76594810      39.78156543
Al      37.69494942      41.78251519      39.79537169
Al      39.76369213      43.83555497      39.79914481
Al      41.85254026      45.85389236      39.72886730
Al      43.82009112      47.88267469      39.74850133
Al      31.68195823      33.66498506      41.77507732
Al      33.71603044      35.72319532      41.78777762
Al      35.72706546      37.75995773      41.73597065
Al      37.72260259      39.76274664      41.78778979
Al      39.78176026      41.81958787      41.79936236
Al      41.79284978      43.77597698      41.74887080
Al      43.80097322      45.84365444      41.80737811
Al      33.69635657      33.70620241      43.79756531
Al      35.66441868      35.73763841      43.78565797
Al      37.68615452      37.75367520      43.81173192
Al      39.78302870      39.74730589      43.89093980
Al      41.78524191      41.76226622      43.82709915
Al      43.82967466      43.78821344      43.84069594
Al      35.73770630      33.66310763      45.82290274
Al      37.76690054      35.68723706      45.84720103
Al      39.79121384      37.74225677      45.78587474
Al      41.78860911      39.81269058      45.82095158
Al      43.82447955      41.77451743      45.84788309
Al      37.79115536      33.67948493      47.85292970
Al      39.78952419      35.72879131      47.84389231
Al      41.77266641      37.77359284      47.83383150
Al      43.78732395      39.71065529      47.90708904
Al      39.73828076      33.68875687      49.93792453
Al      41.75623509      35.68229764      49.88581674
Al      41.78716338      33.68077376      51.92285043
Al      23.55468523      35.70295957      35.77063037
Al      25.55551080      37.75405766      35.74060668
Al      27.65957579      39.82328749      35.72156448
Al      29.62240720      41.81321279      35.72348334
Al      31.67178507      43.80553754      35.69198979
Al      33.71522049      45.85750788      35.66952466
Al      35.77015657      47.86852170      35.70879945
Al      37.76768594      49.84872097      35.74640206
Al      39.70672048      51.90561571      35.73670351
Al      25.59396050      35.72489353      37.79742435
Al      27.63812503      37.74115695      37.75440479
Al      29.63634273      39.76613422      37.73663903
Al      31.62590232      41.81949784      37.79288566
Al      33.67446098      43.82032632      37.72179566
Al      35.75685602      45.78489363      37.76058393
Al      37.74915840      47.86720897      37.71147860
Al      39.80166257      49.88695846      37.71232129
Al      27.64373079      35.71079422      39.77335622
Al      29.64421527      37.72831909      39.76476151
Al      31.66997703      39.75306707      39.77970605
Al      33.68244589      41.79548884      39.76314082
Al      35.70782746      43.84119836      39.77786980
Al      37.76531885      45.88823753      39.77730185
Al      39.75196401      47.88081810      39.77877291
Al      29.63000802      35.67900791      41.76062771
Al      31.67880124      37.72595192      41.79480077
Al      33.69267404      39.77674002      41.76931320
Al      35.68945541      41.79060155      41.79365483
Al      37.72146178      43.78387608      41.75970238
Al      39.78169072      45.90175696      41.77245188
Al      41.76319948      47.86174880      41.79043937
Al      31.66874416      35.70735734      43.81251746
Al      33.70352151      37.76069918      43.81781374
Al      35.71051388      39.72504351      43.80502171
Al      37.77174886      41.76376585      43.78047208
Al      39.79240583      43.79871123      43.82965074
Al      41.81876532      45.86261201      43.79300618
Al      33.67354072      35.75711238      45.91848755
Al      35.72995021      37.74464018      45.86425063
Al      37.68719765      39.80439716      45.86786492
Al      39.78101687      41.81891183      45.79260606
Al      41.78375905      43.80662779      45.83069071
Al      35.76448525      35.73752968      47.87186255
Al      37.68814969      37.72092326      47.92514679
Al      39.78437049      39.78681101      47.89525972
Al      41.77951555      41.80495548      47.88536026
Al      37.77686469      35.72583904      49.85524645
Al      39.78734426      37.75695136      49.87920791
Al      39.76965737      35.71863233      51.92145094
Al      23.54420480      37.77110078      37.75067266
Al      25.54215878      39.77580101      37.73270591
Al      27.60634311      41.77653662      37.74026484
Al      29.63756478      43.83357559      37.72022256
Al      31.66912850      45.87218870      37.74527519
Al      33.71496563      47.86234312      37.71790065
Al      35.72958011      49.87629340      37.73791938
Al      37.74437378      51.90839373      37.70954611
Al      25.65427963      37.73825015      39.77048408
Al      27.62649130      39.75946432      39.75977619
Al      29.62944860      41.75153706      39.75366718
Al      31.65438101      43.78751818      39.79296294
Al      33.69857820      45.86243005      39.75313056
Al      35.72330510      47.87744436      39.76775170
Al      37.74297649      49.87910338      39.74783895
Al      27.63250890      37.73070884      41.78489351
Al      29.64646962      39.81591627      41.81036788
Al      31.64151075      41.80912792      41.82744974
Al      33.70264840      43.81851775      41.82776165
Al      35.74114552      45.85560566      41.78907092
Al      37.75517317      47.87540541      41.81661004
Al      29.67313709      37.71499988      43.78392524
Al      31.68400797      39.78915211      43.81190856
Al      33.64969278      41.81034447      43.80603822
Al      35.69571182      43.86184761      43.86478232
Al      37.73207311      45.84570610      43.84194574
Al      39.82835326      47.89474499      43.81339044
Al      31.63645524      37.82058024      45.84397890
Al      33.71465674      39.75122131      45.86146121
Al      35.72508230      41.76311630      45.80897659
Al      37.73489406      43.80641336      45.83080147
Al      39.74437348      45.86713507      45.85506453
Al      33.74250292      37.76498080      47.87529119
Al      35.75041626      39.75467851      47.82424454
Al      37.69731828      41.82274628      47.88688518
Al      39.76332503      43.78682235      47.87824279
Al      35.72971970      37.69852231      49.88444949
Al      37.71489066      39.78031287      49.89779834
Al      37.75787558      37.74217683      51.88873928
Al      23.54703464      39.81260758      39.72561500
Al      25.63277467      41.84054837      39.78841458
Al      27.65423395      43.81644741      39.79090583
Al      29.62854918      45.86414143      39.76736553
Al      31.66708614      47.90942519      39.80023070
Al      33.73381749      49.89128630      39.75006826
Al      35.70064525      51.97367766      39.75784732
Al      25.60915319      39.78335613      41.81660843
Al      27.59326060      41.79080845      41.75903759
Al      29.60142968      43.82791160      41.79058897
Al      31.65468979      45.84801132      41.78248298
Al      33.66459012      47.90055776      41.77350158
Al      35.81461723      49.86004842      41.74510142
Al      27.61967372      39.79678825      43.83507263
Al      29.65217157      41.80910792      43.83969597
Al      31.68496980      43.80329195      43.80936797
Al      33.66606544      45.87001518      43.84063402
Al      35.72515220      47.88142634      43.79938580
Al      29.64071494      39.79999071      45.83733955
Al      31.67994996      41.77568710      45.84238596
Al      33.68087182      43.82768812      45.81994135
Al      35.69701312      45.82905070      45.84153618
Al      31.68069417      39.77805070      47.90984699
Al      33.74837114      41.83939231      47.84694806
Al      35.69432384      43.78143512      47.82098068
Al      33.69042604      39.76885882      49.88488269
Al      35.76849944      41.80140082      49.91109479
Al      35.74096648      39.73493941      51.89780569
Al      23.56448985      41.77397361      41.79649860
Al      25.56678662      43.84507410      41.73556612
Al      27.63903427      45.86065647      41.81436402
Al      29.63149042      47.87391134      41.77963303
Al      31.68460881      49.85891087      41.78721057
Al      33.71140756      51.94610063      41.81946356
Al      25.57771702      41.79021634      43.84323096
Al      27.61577142      43.87113053      43.85594469
Al      29.64710534      45.82892609      43.80797712
Al      31.67850719      47.87711557      43.82813051
Al      33.66762420      49.89761693      43.82119857
Al      27.64987400      41.75908970      45.87514116
Al      29.58569957      43.81447496      45.85631553
Al      31.60827738      45.84248694      45.86638786
Al      33.70037255      47.89829944      45.84723558
Al      29.64328504      41.77105200      47.86933221
Al      31.71513692      43.83182823      47.90197135
Al      33.71367870      45.83425222      47.87465482
Al      31.64562424      41.78873458      49.91052674
Al      33.67836738      43.84676489      49.87277154
Al      33.72780386      41.85584840      51.85919321
Al      23.53929343      43.81171632      43.82284709
Al      25.58212069      45.83468852      43.82650811
Al      27.61937389      47.87490509      43.77911685
Al      29.65789981      49.87818705      43.84683183
Al      25.54051054      43.84373587      45.82981862
Al      27.57380168      45.85542526      45.84772237
Al      29.67386776      47.86511694      45.84582795
Al      31.66722543      49.88258152      45.85729606
Al      27.61061049      43.84182076      47.80697002
Al      29.63149916      45.80969259      47.87999589
Al      31.66125523      47.85776204      47.90700794
Al      29.66728187      43.82439970      49.92333789
Al      31.68637260      45.83263680      49.88306108
Al      23.57700202      45.81163980      45.84826430
Al      25.60050902      47.86481471      45.81984446
Al      27.60960906      49.88009971      45.86144928
Al      25.58444186      45.83520852      47.86948702
Al      27.63311268      47.89475160      47.81601638
Al      27.61442425      45.87337295      49.86483244
Al      23.53951959      47.90804728      47.87721618
