500
Lattice="25.62773633146425 0.0 0.0 0.0 21.026424215298654 0.0 0.0 0.0 22.3407311735655" Properties=species:S:1:pos:R:3 id=sample_000346 pbc="F F F"
Al      -0.00605361       0.00374704      -0.01861011
Al      -0.01759164       2.09451124       2.20833003
Al       2.58139777      -0.01040834       2.22746139
Al       2.55618231       2.09371431       0.01238664
Al      -0.00225337       0.00402789       4.46561839
Al       0.01877554       2.11010687       6.71325093
Al       2.56323988       0.00176371       6.69880016
Al       2.57180441       2.09715502       4.46655864
Al      -0.00754387       0.00186973       8.92053807
Al      -0.01649892       2.10731752      11.19070894
Al       2.54795599       0.01313556      11.19214118
Al       2.54818990       2.09782284       8.94173444
Al      -0.00480075       0.01589919      13.40113870
Al      -0.01160624       2.09420818      15.63757333
Al       2.56142486       0.00243219      15.64292541
Al       2.57608995       2.09955991      13.40278349
Al      -0.00024469      -0.01254261      17.86953405
Al       0.01656683       2.11912198      20.11013533
Al       2.55518330      -0.00876869      20.11605534
Al       2.56102475       2.10895455      17.86994083
Al       0.01518390       4.19648693       0.01574326
Al      -0.00263272       6.29018720       2.24747969
Al       2.57108681       4.21363822       2.23777550
Al       2.56442445       6.29710761       0.00918093
Al       0.01169962       4.21009343       4.47128885
Al      -0.00206245       6.29171009       6.70979239
Al       2.56539828       4.20798334       6.71129321
Al       2.56760507       6.30983416       4.47934000
Al      -0.00046516       4.20420813       8.91607551
Al       0.00242329       6.31230339      11.18513135
Al       2.57040320       4.22330548      11.15900616
Al       2.55916583       6.30831040       8.93214594
Al       0.00243109       4.21159882      13.39953169
Al      -0.01674381       6.31563338      15.64004192
Al       2.57644256       4.21073149      15.65953409
Al       2.56189306       6.31436776      13.41191259
Al      -0.01190749       4.19034839      17.87751239
Al      -0.00093504       6.32238518      20.10622507
Al       2.55400419       4.20853250      20.11710916
Al       2.56695644       6.32106184      17.88827995
Al       0.00460248       8.40093536       0.00345652
Al       0.01897533      10.51712535       2.23446570
Al       2.54046172       8.41030210       2.22544266
Al       2.56807445      10.51990656       0.01033260
Al       0.00807136       8.40674806       4.48197059
Al      -0.00368809      10.52161484       6.69672615
Al       2.56386197       8.40471523       6.69642681
Al       2.55971062      10.50016742       4.46100318
Al       0.00902766       8.40687057       8.93224214
Al       0.00371124      10.52039291      11.17012639
Al       2.55165663       8.43463342      11.16314365
Al       2.55750452      10.52469694       8.93008281
Al      -0.00630476       8.40792314      13.39443662
Al       0.01810026      10.50379545      15.64775429
Al       2.57613959       8.42761268      15.62534543
Al       2.58788692      10.51414677      13.41337608
Al      -0.01216271       8.40718649      17.85750577
Al      -0.01870084      10.51275972      20.10760624
Al       2.55115595       8.42639547      20.11985658
Al       2.56486814      10.51625152      17.86529440
Al      -0.00488918      12.63349649       0.01849090
Al       0.00100391      14.70415949       2.22341363
Al       2.56899154      12.61402613       2.25640655
Al       2.56137465      14.71963009      -0.00045088
Al       0.03028759      12.64776204       4.46861542
Al       0.02007768      14.73584461       6.69040174
Al       2.57501488      12.61260901       6.70271363
Al       2.54409043      14.73405095       4.48213922
Al       0.00730811      12.60426815       8.92681590
Al      -0.00326442      14.72344358      11.17190249
Al       2.56364713      12.62437732      11.18393514
Al       2.56136173      14.70334227       8.92351593
Al      -0.00718961      12.63797957      13.39433857
Al       0.00228555      14.69289606      15.63395224
Al       2.55964193      12.62951866      15.64159031
Al       2.56475498      14.72145759      13.39473690
Al      -0.00368744      12.60958470      17.86802715
Al      -0.00021695      14.73762176      20.13116159
Al       2.55949571      12.60656711      20.11612531
Al       2.56505933      14.71294838      17.88397381
Al      -0.00045623      16.81810115       0.01235294
Al       0.00594859      18.91887162       2.22948781
Al       2.56109521      16.83570989       2.23801220
Al       2.55984519      18.90932147      -0.00078650
Al       0.00205185      16.81527874       4.46006680
Al       0.00158090      18.93846981       6.70287020
Al       2.56212467      16.80621851       6.71282814
Al       2.57153153      18.90165018       4.44255966
Al      -0.00617873      16.81436546       8.93490060
Al      -0.00712693      18.90477879      11.15943840
Al       2.56021394      16.82613569      11.17194464
Al       2.56251477      18.91609449       8.93634296
Al       0.00005601      16.81841929      13.37636251
Al       0.00043538      18.91904584      15.64567489
Al       2.56683698      16.81856633      15.63548611
Al       2.56003153      18.93213740      13.39553752
Al      -0.01006997      16.81356296      17.87750800
Al       0.01192106      18.91863659      20.10274480
Al       2.56108029      16.80759188      20.11421280
Al       2.56298282      18.89911714      17.88445776
Al       5.14779899      -0.01732567      -0.00653633
Al       5.11991480       2.09516714       2.24727022
Al       7.68922903      -0.01415875       2.23788829
Al       7.67565861       2.11242183      -0.00058969
Al       5.12874108       0.01277316       4.45238436
Al       5.11662852       2.11699235       6.69782650
Al       7.68555751       0.01336600       6.71171614
Al       7.68630511       2.08884909       4.48065476
Al       5.14085627       0.00407448       8.95086478
Al       5.12921113       2.08312646      11.15555356
Al       7.68417971      -0.01227173      11.16164083
Al       7.67957125       2.08465214       8.92115121
Al       5.11032355      -0.00090363      13.42191994
Al       5.13263814       2.09611621      15.63314149
Al       7.69078449       0.01103461      15.64125699
Al       7.68223910       2.10532891      13.38724760
Al       5.11604500       0.00986123      17.87590141
Al       5.13121256       2.10283182      20.09346850
Al       7.67634118       0.00579402      20.09702216
Al       7.69170229       2.11874059      17.87987729
Al       5.13176959       4.20122914       0.01523521
Al       5.13009963       6.30842066       2.22402688
Al       7.68638799       4.20147276       2.23510690
Al       7.67290349       6.30096694      -0.00312395
Al       5.12063519       4.20697500       4.47924643
Al       5.12754202       6.30225083       6.70560941
Al       7.67789681       4.20765393       6.71219170
Al       7.68588313       6.31583459       4.47081752
Al       5.11464622       4.21171077       8.94748627
Al       5.10441469       6.29611283      11.16577980
Al       7.70067670       4.19696127      11.16493570
Al       7.69203740       6.32397937       8.94582363
Al       5.14428715       4.19914573      13.39280859
Al       5.12618582       6.30920302      15.63956265
Al       7.69761631       4.21080696      15.63498648
Al       7.69915162       6.31551006      13.39636052
Al       5.13223171       4.19579123      17.87173357
Al       5.11756910       6.30914095      20.11598574
Al       7.68307915       4.20864990      20.09731146
Al       7.68954311       6.29910738      17.87031848
Al       5.12561044       8.42442190       0.00973744
Al       5.12355969      10.50522441       2.22391707
Al       7.69016150       8.39665512       2.23869677
Al       7.67830586      10.50764679      -0.00473579
Al       5.11910905       8.41288949       4.46552822
Al       5.13081788      10.51087890       6.71395168
Al       7.70675536       8.40625050       6.68679856
Al       7.69536472      10.52007035       4.47910800
Al       5.12186734       8.40611882       8.93183710
Al       5.11248741      10.49990226      11.17836518
Al       7.69914670       8.39883188      11.16609130
Al       7.69432164      10.52489504       8.93085892
Al       5.13431037       8.39149860      13.41387311
Al       5.14345375      10.50711525      15.62693156
Al       7.68430398       8.40915827      15.66046471
Al       7.69421109      10.51863299      13.41702928
Al       5.12664521       8.43089007      17.87495177
Al       5.14581514      10.51351479      20.11768334
Al       7.67165286       8.40239699      20.09662512
Al       7.70291555      10.52122868      17.87076762
Al       5.11671484      12.60711192      -0.00743794
Al       5.11334294      14.71078927       2.23504231
Al       7.69528978      12.61031740       2.24029895
Al       7.68147307      14.71688052      -0.01219541
Al       5.13284602      12.60976782       4.48254418
Al       5.13010878      14.70002325       6.71273224
Al       7.66556584      12.61197596       6.70405839
Al       7.68871833      14.70883129       4.46852574
Al       5.12718144      12.61649736       8.92173537
Al       5.13478914      14.71020771      11.19453321
Al       7.67433884      12.61514099      11.17289814
Al       7.68957337      14.70085923       8.93855333
Al       5.12515785      12.60721121      13.40266100
Al       5.11963264      14.70895300      15.63139446
Al       7.69237426      12.61595355      15.62856941
Al       7.68667645      14.71910436      13.41139823
Al       5.12181096      12.61602629      17.86659411
Al       5.12203450      14.74118536      20.09343414
Al       7.68464698      12.60589573      20.10808800
Al       7.66808532      14.71480907      17.86433956
Al       5.13846374      16.81770116       0.00603919
Al       5.12420608      18.91601837       2.22989489
Al       7.71801695      16.82350354       2.23017595
Al       7.69874992      18.92037833      -0.01076827
Al       5.13273699      16.81222633       4.48002519
Al       5.12175402      18.94745103       6.72724810
Al       7.68588807      16.82028721       6.71736722
Al       7.68310008      18.93110258       4.47219539
Al       5.14139187      16.81543187       8.93808695
Al       5.11174695      18.92109907      11.15845963
Al       7.67258312      16.81352985      11.17233907
Al       7.67731260      18.92217219       8.92772228
Al       5.13621623      16.82897799      13.40273642
Al       5.12388613      18.93033988      15.62307777
Al       7.68549133      16.81839944      15.63476960
Al       7.69082136      18.93117160      13.39716346
Al       5.11830366      16.82764948      17.87065699
Al       5.10268278      18.89757615      20.10777286
Al       7.69056342      16.82654150      20.09778431
Al       7.70142784      18.91253263      17.87836956
Al      10.26674939       0.00660966      -0.01618313
Al      10.25649074       2.10961871       2.23665165
Al      12.81952419      -0.00630092       2.24302040
Al      12.82351236       2.10119137      -0.00013631
Al      10.26733781      -0.00421810       4.47355331
Al      10.24041056       2.11840704       6.70323857
Al      12.81343851      -0.01235683       6.68682172
Al      12.80913162       2.09310035       4.48068536
Al      10.24865768      -0.00827227       8.93766397
Al      10.24455390       2.08423657      11.17469032
Al      12.80994533      -0.01654384      11.15602126
Al      12.82046098       2.09356848       8.94642006
Al      10.26652874       0.00912593      13.39843700
Al      10.25287239       2.09552060      15.63586465
Al      12.80741932       0.00070333      15.64843533
Al      12.82247549       2.10077327      13.40890115
Al      10.25349736      -0.00795934      17.88912937
Al      10.26185737       2.11373266      20.10046917
Al      12.80700361       0.00462962      20.11018610
Al      12.80979691       2.11329500      17.86470131
Al      10.25900871       4.20484229      -0.00735597
Al      10.24681699       6.30380706       2.22567976
Al      12.80899769       4.18835783       2.22518052
Al      12.81256410       6.31208073       0.00866503
Al      10.26823892       4.20707434       4.46801523
Al      10.24474478       6.29643831       6.71040814
Al      12.80300757       4.19343918       6.71832061
Al      12.81366646       6.30782263       4.45923663
Al      10.26944907       4.19674698       8.95668463
Al      10.24780200       6.31186794      11.16619319
Al      12.79803681       4.22810715      11.18421649
Al      12.81378295       6.30967954       8.94992776
Al      10.24003236       4.19111553      13.41022299
Al      10.26598303       6.31738515      15.62772443
Al      12.80439453       4.19050380      15.63831003
Al      12.81609481       6.31182881      13.41434005
Al      10.25267139       4.18616497      17.86438148
Al      10.25707424       6.31311818      20.08837651
Al      12.80485654       4.21386319      20.10520351
Al      12.82265342       6.31026802      17.86752202
Al      10.25120237       8.40786388      -0.00337941
Al      10.24524241      10.51160950       2.23538934
Al      12.80186051       8.38722208       2.24771585
Al      12.82471141      10.51502028      -0.01686209
Al      10.25693791       8.43304210       4.45967739
Al      10.25182087      10.50773586       6.70732265
Al      12.79772658       8.40378650       6.70667323
Al      12.84164649      10.50211396       4.47168015
Al      10.23371071       8.40902007       8.95152232
Al      10.26365234      10.50448385      11.18105413
Al      12.80880812       8.41989985      11.16976987
Al      12.80927194      10.51939915       8.93587114
Al      10.24772227       8.38578816      13.41793762
Al      10.23978343      10.50187162      15.65544749
Al      12.81227249       8.40735630      15.64741932
Al      12.81269685      10.52131615      13.40901561
Al      10.24864923       8.40102705      17.87912446
Al      10.26716891      10.52962718      20.09485353
Al      12.80034466       8.41190504      20.10772063
Al      12.82186415      10.51737412      17.88162358
Al      10.24347207      12.61669974       0.02493253
Al      10.24416944      14.72622430       2.23856904
Al      12.81291904      12.61227978       2.23371470
Al      12.81182931      14.71498402      -0.00274304
Al      10.24877468      12.60907918       4.46517133
Al      10.26007782      14.70786893       6.70950345
Al      12.80031025      12.60168901       6.71387942
Al      12.79395770      14.71358905       4.45497774
Al      10.26580066      12.62839449       8.92465811
Al      10.26560433      14.72315818      11.17297354
Al      12.82135429      12.62771592      11.17997690
Al      12.82847619      14.70829124       8.94032758
Al      10.26479419      12.61703425      13.39610346
Al      10.26584322      14.72686354      15.63753136
Al      12.80290279      12.61890182      15.63254102
Al      12.79061861      14.71069604      13.41337943
Al      10.23997075      12.61627910      17.87758048
Al      10.26352195      14.71160781      20.10488824
Al      12.81696434      12.61195175      20.10871540
Al      12.81520924      14.74003769      17.89023886
Al      10.26174388      16.82440250       0.00409459
Al      10.24560667      18.91719713       2.22371170
Al      12.80747984      16.80786229       2.24093508
Al      12.81697802      18.91335548       0.00031123
Al      10.23753229      16.81081888       4.46401542
Al      10.26839444      18.92416454       6.70601340
Al      12.79474238      16.80480964       6.67921767
Al      12.80017466      18.91962560       4.46138602
Al      10.25540894      16.81949608       8.95146000
Al      10.22794805      18.92007135      11.16913216
Al      12.81742715      16.83676082      11.16456761
Al      12.81534922      18.91813145       8.93174599
Al      10.24244110      16.81254440      13.40771656
Al      10.24526821      18.94097410      15.63689828
Al      12.81155563      16.82978326      15.63018646
Al      12.82198284      18.93139739      13.40117672
Al      10.22831386      16.81283290      17.88565901
Al      10.26626088      18.92584646      20.08693461
Al      12.81957554      16.83338610      20.10752459
Al      12.83236997      18.91130270      17.87522701
Al      15.37723265      -0.00784904      -0.00355773
Al      15.36429793       2.12735868       2.24476583
Al      17.92541281       0.00625106       2.23974076
Al      17.93995089       2.12452575       0.01499511
Al      15.38699880      -0.01135961       4.48516795
Al      15.36507188       2.08984270       6.69061738
Al      17.93797387       0.00857115       6.70739092
Al      17.93891644       2.10052009       4.46117943
Al      15.36888904      -0.01274360       8.94575016
Al      15.39154340       2.10100026      11.16516419
Al      17.94441913       0.02102351      11.15925536
Al      17.93803105       2.10778520       8.93660744
Al      15.39093537       0.00066429      13.41732223
Al      15.37178407       2.09081884      15.64045517
Al      17.93601122       0.00129520      15.64962138
Al      17.94070235       2.09907506      13.39670206
Al      15.37079223       0.00503265      17.87919949
Al      15.37346135       2.11405949      20.11363760
Al      17.93506623      -0.00304602      20.11842025
Al      17.93971223       2.09461318      17.87202245
Al      15.35678501       4.19623878       0.00358243
Al      15.38524683       6.30043250       2.24244433
Al      17.93691947       4.18029251       2.22519465
Al      17.95226804       6.31291178       0.00963155
Al      15.37448366       4.19431881       4.47742275
Al      15.36648962       6.31717229       6.69234164
Al      17.93049584       4.20687676       6.70198400
Al      17.92550779       6.29822180       4.45879829
Al      15.39356414       4.20084346       8.95949194
Al      15.37225508       6.30553426      11.17440805
Al      17.95257808       4.20997437      11.18498426
Al      17.92386251       6.31412070       8.93079182
Al      15.38892615       4.21607145      13.40974270
Al      15.38436514       6.29856004      15.64354568
Al      17.95149385       4.21656644      15.65065543
Al      17.92212305       6.31042704      13.40613012
Al      15.38201461       4.19841981      17.87900420
Al      15.37296054       6.31010140      20.10346270
Al      17.95246990       4.19165426      20.10678295
Al      17.94936443       6.29185204      17.86782099
Al      15.37427348       8.41331543      -0.01994378
Al      15.38105673      10.51975194       2.22502078
Al      17.94826167       8.41332832       2.22509995
Al      17.94191740      10.51016076       0.00890895
Al      15.38301120       8.41059692       4.47119972
Al      15.39151599      10.51635288       6.68360935
Al      17.93008346       8.41736032       6.70870134
Al      17.93278145      10.49733418       4.46847927
Al      15.39633045       8.41453475       8.91468366
Al      15.35782932      10.51096204      11.18746566
Al      17.93637586       8.40891775      11.15141004
Al      17.95065948      10.51955515       8.92830224
Al      15.39055613       8.40391429      13.39871214
Al      15.39102537      10.51614310      15.61923717
Al      17.93312300       8.41338130      15.63878816
Al      17.95268790      10.53471639      13.41963478
Al      15.37219023       8.42159825      17.87642990
Al      15.38673313      10.50839440      20.10809903
Al      17.94712437       8.42111187      20.09757219
Al      17.93315037      10.50124090      17.87799005
Al      15.38451800      12.62388083      -0.01751975
Al      15.37884557      14.72450166       2.23647530
Al      17.93580786      12.60327292       2.22940651
Al      17.93090971      14.72880236       0.02337592
Al      15.38270072      12.59994488       4.47111005
Al      15.38695502      14.72540636       6.68135627
Al      17.92865217      12.61047399       6.70543907
Al      17.94986168      14.70144741       4.48574882
Al      15.37590976      12.60475642       8.92312342
Al      15.38334650      14.71804463      11.15832018
Al      17.93204787      12.61257503      11.15252572
Al      17.94102485      14.70641134       8.94315291
Al      15.37628228      12.62080428      13.41886938
Al      15.37315286      14.70172236      15.64480520
Al      17.94324789      12.61323740      15.64408281
Al      17.93061347      14.70846357      13.40581159
Al      15.37463665      12.62217502      17.88603162
Al      15.40246677      14.71846677      20.11072962
Al      17.92714079      12.61918141      20.09715153
Al      17.93361440      14.72180990      17.87302179
Al      15.37520299      16.81258089      -0.00590847
Al      15.36731262      18.92345053       2.23724954
Al      17.92896672      16.81750836       2.23424180
Al      17.94210639      18.91642018       0.01078730
Al      15.37340645      16.80695336       4.47865232
Al      15.38450133      18.93181981       6.68628475
Al      17.94865106      16.82068775       6.70017869
Al      17.92970136      18.92033352       4.46768108
Al      15.38475627      16.81666433       8.93564577
Al      15.36112816      18.93316218      11.17590966
Al      17.93755425      16.82033968      11.18253874
Al      17.95062091      18.93293391       8.95591704
Al      15.37503033      16.83080817      13.40078194
Al      15.36993838      18.93355606      15.64221756
Al      17.92850983      16.82492927      15.63832870
Al      17.93369130      18.92942014      13.38578861
Al      15.37683757      16.82534895      17.86017215
Al      15.36175336      18.93935604      20.10171272
Al      17.93646675      16.83797046      20.08960321
Al      17.94467722      18.93543533      17.87322202
Al      20.51722991       0.00343882      -0.01283904
Al      20.49821995       2.08825484       2.21813477
Al      23.06480328       0.01443855       2.22490876
Al      23.07436332       2.11323231       0.01034487
Al      20.48886640       0.00167544       4.46550945
Al      20.49899936       2.09508093       6.70216614
Al      23.05812015      -0.00461701       6.69154355
Al      23.08363880       2.10281668       4.47360704
Al      20.51989613      -0.01268643       8.93642182
Al      20.51204603       2.09796039      11.15613891
Al      23.06421820      -0.00772989      11.16349409
Al      23.06923796       2.11907518       8.94057380
Al      20.47664663       0.00681910      13.40175316
Al      20.48967610       2.10078725      15.64811694
Al      23.07665392       0.00224844      15.64050246
Al      23.06276090       2.10864486      13.39302830
Al      20.49926196       0.00514409      17.86928104
Al      20.49540368       2.10416329      20.10796420
Al      23.05746706       0.00970509      20.09325400
Al      23.06862536       2.10981416      17.87030379
Al      20.49003417       4.21454100       0.01544619
Al      20.50620098       6.29906365       2.24450539
Al      23.07044921       4.20173440       2.22543337
Al      23.06489351       6.30269435      -0.00851913
Al      20.49568917       4.19769574       4.47730772
Al      20.49420618       6.31636364       6.67633439
Al      23.07687710       4.18860694       6.69644231
Al      23.05968562       6.31340860       4.45868456
Al      20.51278808       4.20246981       8.93193773
Al      20.51593797       6.31177455      11.14989681
Al      23.06655492       4.18893691      11.18070169
Al      23.06321745       6.32346741       8.93391912
Al      20.50677637       4.21295155      13.41908915
Al      20.50394621       6.31502585      15.65052542
Al      23.06536934       4.20784612      15.64010726
Al      23.07409774       6.31573627      13.42303851
Al      20.52580593       4.19366159      17.87590781
Al      20.49830549       6.29933028      20.12222720
Al      23.04133098       4.20345266      20.09917435
Al      23.05209770       6.29642246      17.87505993
Al      20.51233896       8.40985671       0.02145292
Al      20.49195629      10.52473713       2.23155696
Al      23.05299773       8.40595610       2.24617910
Al      23.06712847      10.50481038       0.00610709
Al      20.49302241       8.38975200       4.46257908
Al      20.51182860      10.52638380       6.68741465
Al      23.07104216       8.39789695       6.69561271
Al      23.05052783      10.50816242       4.46166044
Al      20.49991599       8.41126262       8.92868798
Al      20.50327289      10.52107678      11.17339566
Al      23.07658243       8.40936456      11.16161726
Al      23.06672491      10.52074097       8.94245772
Al      20.51196569       8.40883356      13.40247026
Al      20.49076455      10.50207814      15.65270695
Al      23.06975257       8.39747163      15.64946528
Al      23.05938377      10.49856465      13.39261572
Al      20.49390400       8.40705206      17.86551492
Al      20.51310308      10.51273648      20.09670242
Al      23.07249676       8.39599578      20.09261023
Al      23.05979503      10.52318562      17.86330872
Al      20.50355161      12.61014353      -0.01196076
Al      20.51749544      14.71910644       2.22834865
Al      23.05588280      12.61931949       2.21913310
Al      23.06412709      14.73569503      -0.02070231
Al      20.50007142      12.61384093       4.48255049
Al      20.49333392      14.71508086       6.71061573
Al      23.06053354      12.62283171       6.72371038
Al      23.07379155      14.71506048       4.45697390
Al      20.50919352      12.61734877       8.92148780
Al      20.48696686      14.72038662      11.15471270
Al      23.05657486      12.61811207      11.17403632
Al      23.06902820      14.71998771       8.93586916
Al      20.50420567      12.63627637      13.39718145
Al      20.49998016      14.70795693      15.63600868
Al      23.05751101      12.63590045      15.62866833
Al      23.04985254      14.71505920      13.41976767
Al      20.49893215      12.62291197      17.89588299
Al      20.50518131      14.73281548      20.09572112
Al      23.05817379      12.60265282      20.11108174
Al      23.05278945      14.70440580      17.87188129
Al      20.50299083      16.83287908       0.00462552
Al      20.48518513      18.93637065       2.21287891
Al      23.07371953      16.81901374       2.22282076
Al      23.06100953      18.93684670      -0.01293207
Al      20.49730437      16.83986279       4.45812641
Al      20.51319196      18.92306613       6.70008319
Al      23.07748323      16.83461463       6.71139684
Al      23.07983390      18.91570261       4.46631586
Al      20.48849150      16.81696799       8.92237229
Al      20.48275225      18.91207350      11.15819174
Al      23.06096782      16.81744967      11.16633433
Al      23.07643511      18.91217607       8.92250363
Al      20.48588499      16.82766472      13.38900966
Al      20.50766578      18.92197005      15.63082752
Al      23.07303497      16.82755946      15.63271148
Al      23.06404684      18.93368736      13.40791891
Al      20.49856610      16.81569634      17.87442721
Al      20.49808531      18.93293526      20.08761017
Al      23.06151967      16.82011656      20.10821776
Al      23.05854564      18.93749909      17.86606167
