256
Lattice="14.786322022825622 0.0 0.0 0.0 16.71027356998167 0.0 0.0 0.0 18.429419610232117" Properties=species:S:1:pos:R:3 id=sample_000479 pbc="F F F"
Au      -0.01505460       0.01348391      -0.01037595
Au      -0.00298154       2.12156261       2.30641553
Au       1.84654712      -0.02098836       2.27754103
Au       1.84170942       2.10579448       0.00739802
Au       0.01026091      -0.00093497       4.61500731
Au      -0.00552229       2.07290213       6.91932805
Au       1.84476110      -0.00438721       6.91030699
Au       1.87084825       2.07705850       4.62849167
Au       0.01525833      -0.03139645       9.20634434
Au      -0.01901693       2.08859054      11.51486051
Au       1.82942080       0.00426009      11.51125513
Au       1.86123354       2.08491775       9.23379691
Au      -0.00533167      -0.01211839      13.82143169
Au       0.01363006       2.07705425      16.10804779
Au       1.84417702      -0.03169220      16.12654763
Au       1.85548659       2.08552153      13.82528639
Au       0.01534428       4.17922358       0.00239725
Au      -0.00503632       6.26477208       2.29062059
Au       1.85984409       4.18742249       2.30927421
Au       1.85417592       6.27938074       0.00364139
Au      -0.00022644       4.19061118       4.58529148
Au       0.00247384       6.27567771       6.91974251
Au       1.88509276       4.17242804       6.90248216
Au       1.85562332       6.27316000       4.59536494
Au       0.04053461       4.19504541       9.21838737
Au       0.00158439       6.24917205      11.55535159
Au       1.83232183       4.19283258      11.51916081
Au       1.83666989       6.27329312       9.19869217
Au      -0.03064111       4.19725492      13.83031149
Au       0.01443175       6.26103356      16.12880469
Au       1.84939763       4.19906454      16.13010046
Au       1.85467989       6.26081288      13.82103375
Au      -0.02294212       8.35265346      -0.00390001
Au       0.01452566      10.42022449       2.29197125
Au       1.85814561       8.36749092       2.30777584
Au       1.84218605      10.41985208       0.01054759
Au       0.00243329       8.35142068       4.62106311
Au       0.03685111      10.42752438       6.91171401
Au       1.84689004       8.33288267       6.90647696
Au       1.87312493      10.44032418       4.60861431
Au       0.01375829       8.35281696       9.23365044
Au      -0.02455447      10.42892297      11.50427187
Au       1.84812656       8.36380093      11.53434799
Au       1.84444774      10.43508258       9.23890707
Au       0.00160134       8.36077322      13.81751443
Au       0.01742941      10.45690939      16.11955515
Au       1.83851540       8.36403999      16.12556540
Au       1.84493082      10.43513879      13.84260384
Au       0.00711448      12.51904390       0.01031235
Au      -0.00658969      14.64343204       2.29454624
Au       1.85634634      12.51224954       2.30739520
Au       1.84390868      14.63230020       0.01570286
Au      -0.00906873      12.54128163       4.57499890
Au       0.01672620      14.62457774       6.92020345
Au       1.85517166      12.55737469       6.95002452
Au       1.83132887      14.62136486       4.59132601
Au      -0.03908463      12.54599401       9.23162914
Au       0.00416398      14.64801803      11.51853569
Au       1.85360293      12.53001410      11.50646133
Au       1.83122477      14.61993074       9.23177721
Au      -0.02566595      12.52930602      13.83931117
Au      -0.02289717      14.61589141      16.12253436
Au       1.83507898      12.53009856      16.14340279
Au       1.84109326      14.63262081      13.83214938
Au       3.69684602      -0.00911048       0.02162215
Au       3.69382076       2.08597399       2.30887859
Au       5.52162416       0.01513040       2.31330531
Au       5.54025145       2.09497382       0.00697041
Au       3.70154487      -0.01312858       4.62040968
Au       3.72738672       2.07782520       6.90762196
Au       5.54266370      -0.01713572       6.91023195
Au       5.54019218       2.06732261       4.61430497
Au       3.67595248       0.01805524       9.21205021
Au       3.69297104       2.11775482      11.51551332
Au       5.54334703      -0.00551206      11.51787040
Au       5.54606591       2.06772099       9.21672347
Au       3.69060873      -0.02553788      13.83883543
Au       3.68253824       2.08508087      16.10693971
Au       5.54970758      -0.01215526      16.12966038
Au       5.55343033       2.09317666      13.82726888
Au       3.70785129       4.16177429      -0.00877274
Au       3.69508777       6.28160056       2.29510207
Au       5.56687490       4.17908097       2.32038240
Au       5.52772151       6.26597930       0.01107471
Au       3.70094238       4.16453457       4.59057447
Au       3.68350939       6.25510687       6.89838962
Au       5.53629604       4.19964925       6.90346435
Au       5.54495529       6.27098871       4.62816605
Au       3.69832157       4.18468398       9.20698304
Au       3.68486594       6.28736632      11.52720791
Au       5.55595973       4.17850127      11.52923148
Au       5.54573681       6.27328159       9.21709965
Au       3.67526207       4.16439108      13.81293245
Au       3.69342190       6.27450521      16.14299769
Au       5.55998554       4.18068758      16.10770848
Au       5.56438050       6.26804188      13.78733861
Au       3.68590243       8.36112642      -0.01468211
Au       3.69827919      10.44817256       2.28133377
Au       5.55436331       8.35466213       2.30425366
Au       5.53649394      10.43118423       0.01952904
Au       3.70527736       8.34610221       4.63489094
Au       3.70741733      10.45152845       6.91859161
Au       5.55720031       8.36596099       6.89980142
Au       5.55952759      10.44192434       4.60875503
Au       3.70092098       8.34337580       9.21654198
Au       3.71810656      10.42251684      11.52578315
Au       5.53706630       8.37675117      11.52758745
Au       5.56924606      10.45185806       9.19168766
Au       3.68472453       8.36914355      13.83452362
Au       3.68526986      10.43550381      16.12513184
Au       5.53413700       8.37868425      16.11209131
Au       5.54372671      10.43879568      13.79148510
Au       3.68620903      12.53357836       0.00321892
Au       3.70225755      14.62951366       2.31618967
Au       5.56233227      12.54419754       2.30548093
Au       5.55052692      14.62957195       0.00123683
Au       3.69552155      12.54494307       4.62669424
Au       3.70565617      14.63718219       6.92299763
Au       5.54200768      12.55108187       6.92741461
Au       5.54194721      14.62109189       4.61978534
Au       3.71592755      12.53533865       9.17748499
Au       3.68854444      14.62594245      11.51338407
Au       5.53870443      12.55283093      11.54765298
Au       5.56347234      14.59886874       9.21148720
Au       3.68322952      12.52336350      13.79286937
Au       3.70578143      14.60772873      16.10977024
Au       5.56270540      12.54731283      16.08754922
Au       5.54719191      14.61454552      13.84266221
Au       7.40447216      -0.01801858       0.02022902
Au       7.40688637       2.08855257       2.31478649
Au       9.24221669      -0.02299957       2.29453281
Au       9.24547950       2.08622292       0.03562267
Au       7.39102475       0.01712886       4.62913974
Au       7.39468395       2.10989243       6.91920455
Au       9.23152403      -0.00512825       6.92409261
Au       9.22805259       2.08602488       4.60758841
Au       7.37941651      -0.00755355       9.20612845
Au       7.39963149       2.10115853      11.50416561
Au       9.25672515       0.01855632      11.48986045
Au       9.23573619       2.07673378       9.22321399
Au       7.41091062      -0.00687396      13.81046193
Au       7.39079466       2.09614545      16.12851751
Au       9.22903520       0.01643256      16.11396481
Au       9.21970045       2.08551461      13.83451345
Au       7.39040257       4.18110466      -0.00606011
Au       7.37726602       6.25335629       2.30223603
Au       9.27474111       4.18094225       2.34599494
Au       9.23751062       6.26292249      -0.00829855
Au       7.38493784       4.17171399       4.63918441
Au       7.42291544       6.26292299       6.90244939
Au       9.24575883       4.15840886       6.92504366
Au       9.22127249       6.25860800       4.60288935
Au       7.37917570       4.16458316       9.23039500
Au       7.39478638       6.27150861      11.52352540
Au       9.25152998       4.17908131      11.50728085
Au       9.21943058       6.28086478       9.21704026
Au       7.39689414       4.16324107      13.78874422
Au       7.38816800       6.26491110      16.10092715
Au       9.22386641       4.15617755      16.13535183
Au       9.21384415       6.27136576      13.82208543
Au       7.40595609       8.33102555      -0.03733952
Au       7.38662309      10.44868249       2.31398444
Au       9.26246616       8.35714741       2.28575599
Au       9.24734212      10.45909977      -0.00253807
Au       7.38798965       8.36637344       4.57821208
Au       7.37911316      10.43741294       6.92184928
Au       9.24780391       8.34695495       6.91804662
Au       9.27526142      10.43873925       4.60359998
Au       7.39188435       8.35737150       9.23416641
Au       7.39732302      10.44431402      11.50894928
Au       9.24080830       8.34513235      11.50628894
Au       9.25011915      10.45177609       9.21303525
Au       7.39741454       8.35444041      13.82002578
Au       7.41765280      10.43131860      16.12189436
Au       9.22635399       8.35576757      16.12198031
Au       9.23253592      10.43538605      13.81447244
Au       7.38255208      12.53549049      -0.00954538
Au       7.38517729      14.65419475       2.31546365
Au       9.24789913      12.51694100       2.29370825
Au       9.25022851      14.62133271      -0.00634956
Au       7.40371288      12.52746845       4.60984880
Au       7.38081299      14.60953303       6.89946533
Au       9.24319134      12.51883358       6.91272797
Au       9.23632224      14.62059469       4.59129821
Au       7.38806627      12.53205943       9.20870312
Au       7.38591185      14.62196699      11.51819186
Au       9.21551387      12.51176283      11.51486997
Au       9.23987534      14.65014801       9.22819325
Au       7.42068148      12.53287930      13.83208283
Au       7.40129626      14.61257260      16.12280846
Au       9.24096156      12.53775324      16.11547770
Au       9.23361146      14.62046047      13.84023528
Au      11.08295190      -0.01812469       0.00518025
Au      11.08517117       2.10086264       2.28287817
Au      12.94192289       0.01844581       2.30665465
Au      12.94075811       2.10834347       0.00771468
Au      11.09871146       0.01565367       4.61538567
Au      11.07615910       2.08810445       6.93706973
Au      12.93603789       0.03381068       6.89078954
Au      12.95432215       2.10172573       4.60958615
Au      11.09714359       0.00850935       9.20808577
Au      11.07820333       2.07467728      11.51587756
Au      12.94307822      -0.00870753      11.52738008
Au      12.94003639       2.09965988       9.19415100
Au      11.08736075      -0.00888573      13.82896444
Au      11.10138238       2.07798652      16.11713294
Au      12.91294352      -0.02620581      16.11019508
Au      12.94389188       2.08887466      13.82259582
Au      11.07204508       4.19324374       0.00782882
Au      11.11613532       6.27376063       2.31465392
Au      12.93989732       4.19304747       2.28611595
Au      12.95581734       6.25411744       0.01224711
Au      11.11066934       4.18741887       4.61353746
Au      11.10666916       6.25120484       6.88558191
Au      12.92241533       4.16800882       6.88121514
Au      12.96330566       6.25158817       4.60409870
Au      11.09700877       4.15711803       9.20920820
Au      11.10518236       6.27561274      11.50320871
Au      12.92255443       4.20060742      11.53913764
Au      12.94868105       6.27687324       9.20920520
Au      11.06928299       4.17869312      13.82078240
Au      11.09699288       6.26937454      16.15330780
Au      12.91695259       4.18499890      16.11460394
Au      12.92632139       6.27097644      13.83837996
Au      11.07262135       8.35973631      -0.01022965
Au      11.09216842      10.46161395       2.30445972
Au      12.95010596       8.32516199       2.31073924
Au      12.94067249      10.42813481       0.00641408
Au      11.10054462       8.34512245       4.62716972
Au      11.11904291      10.44059221       6.92061699
Au      12.94194799       8.34400408       6.92106563
Au      12.94651386      10.44952039       4.60565143
Au      11.08329478       8.34218028       9.20384243
Au      11.08734843      10.41916890      11.51793209
Au      12.93456483       8.32883972      11.54785766
Au      12.92239388      10.44809944       9.22029075
Au      11.09159339       8.34439028      13.84351373
Au      11.09482100      10.44799410      16.12243532
Au      12.93540251       8.35893530      16.11557919
Au      12.94507132      10.45098743      13.81173438
Au      11.10723455      12.53163214      -0.02276906
Au      11.08165335      14.58761156       2.28653528
Au      12.93986950      12.52886340       2.29444805
Au      12.93603877      14.62908097       0.00331712
Au      11.07392386      12.53228682       4.59619034
Au      11.08879191      14.61962059       6.91827936
Au      12.96262162      12.55830395       6.91142901
Au      12.94309213      14.63327686       4.60612957
Au      11.11390060      12.54534052       9.22131024
Au      11.08973224      14.63417726      11.52757831
Au      12.92621310      12.51272805      11.49701549
Au      12.95547179      14.63368614       9.22172486
Au      11.07286051      12.55897566      13.81176205
Au      11.08930701      14.64416419      16.15298584
Au      12.91347945      12.52156429      16.12189038
Au      12.93970117      14.64921514      13.82788327
