108
Lattice="8.795337550539648 0.0 0.0 0.0 9.879343643001855 0.0 0.0 0.0 8.234731252838229" Properties=species:S:1:pos:R:3 id=sample_001048 pbc="F F F"
Fe      -0.00031029      -0.00545379       0.00205680
Fe       0.01489102       1.64141938       1.36751433
Fe       1.44872403      -0.01362876       1.40660736
Fe       1.43172444       1.68108303      -0.01438762
Fe       0.00817503       0.03292258       2.75733816
Fe      -0.04078188       1.65375915       4.09182643
Fe       1.47569016      -0.00396009       4.13050069
Fe       1.45319732       1.64462629       2.76105136
Fe      -0.00225590      -0.00239245       5.48551982
Fe      -0.00878500       1.62727021       6.88151574
Fe       1.45966789      -0.00598469       6.90690972
Fe       1.45698628       1.63610223       5.51418472
Fe      -0.02433937       3.31531395       0.00051260
Fe       0.01931187       4.97023532       1.36096959
Fe       1.49268656       3.31815909       1.33044198
Fe       1.48894749       4.94339685      -0.01660048
Fe       0.04940450       3.29519332       2.78234668
Fe       0.00766105       4.91328873       4.07970437
Fe       1.44695632       3.28642959       4.10386346
Fe       1.44697740       4.95819379       2.75644834
Fe      -0.03026851       3.29100144       5.46988098
Fe       0.01461259       4.93874639       6.89617946
Fe       1.45878665       3.30118442       6.88803503
Fe       1.48382256       4.91346197       5.50316332
Fe       0.02603161       6.58947678       0.02557234
Fe      -0.00596548       8.24092237       1.36068364
Fe       1.45218781       6.58323903       1.38776974
Fe       1.45844498       8.30198134       0.01316029
Fe       0.03307194       6.57099283       2.76792587
Fe      -0.00236068       8.25497073       4.09450608
Fe       1.46832588       6.57891796       4.13047874
Fe       1.45859647       8.25691118       2.70964839
Fe       0.02588229       6.58550503       5.50451699
Fe       0.02542555       8.25534317       6.85798002
Fe       1.47237942       6.59501139       6.86782737
Fe       1.42688434       8.22496123       5.47911868
Fe       2.93052702      -0.01687450      -0.01705705
Fe       2.93239255       1.63552331       1.36591216
Fe       4.39600937      -0.00624666       1.38892978
Fe       4.37232414       1.62872752      -0.01503691
Fe       2.93741620      -0.00640580       2.77907144
Fe       2.93504742       1.64258250       4.11989198
Fe       4.39289867      -0.01387301       4.12331048
Fe       4.40893931       1.68023018       2.73909644
Fe       2.88454530       0.00694797       5.46558087
Fe       2.93885452       1.63685396       6.85940094
Fe       4.37991780       0.00535555       6.86979605
Fe       4.39009216       1.60899815       5.52580622
Fe       2.93405717       3.25492229       0.00514538
Fe       2.93939269       4.96127701       1.38117665
Fe       4.42005880       3.27478336       1.35620824
Fe       4.38785384       4.94119403      -0.03102795
Fe       2.94807899       3.29138682       2.75681427
Fe       2.95754536       4.94453038       4.14277237
Fe       4.39641803       3.26322947       4.10774463
Fe       4.42434075       4.94943289       2.73633436
Fe       2.93299748       3.31392778       5.52454741
Fe       2.94279800       4.91349388       6.86705298
Fe       4.37371831       3.32269646       6.87272021
Fe       4.40376358       4.94918218       5.48013561
Fe       2.92650048       6.57595192      -0.01078111
Fe       2.96244961       8.25405038       1.37310621
Fe       4.39452540       6.58950585       1.39423430
Fe       4.38188695       8.24945949       0.03099903
Fe       2.90072023       6.59165041       2.74196844
Fe       2.93894122       8.24146236       4.13026295
Fe       4.40066997       6.59095149       4.14132278
Fe       4.39541783       8.22422149       2.71131858
Fe       2.92290041       6.59134955       5.47381320
Fe       2.95439171       8.22886610       6.84178547
Fe       4.40913396       6.60556971       6.83258443
Fe       4.39688479       8.22488350       5.47613991
Fe       5.84810493      -0.02724579       0.00903109
Fe       5.88212557       1.63606354       1.39526955
Fe       7.33213221      -0.00203565       1.36200962
Fe       7.33143138       1.67753351      -0.00597511
Fe       5.86177911       0.04151170       2.76248436
Fe       5.85743035       1.64845774       4.08451090
Fe       7.33426537      -0.00027509       4.14313923
Fe       7.36257995       1.62173514       2.74579462
Fe       5.86534444      -0.03507250       5.49724259
Fe       5.86201043       1.62596812       6.87504883
Fe       7.33730281       0.01449486       6.85468499
Fe       7.32844179       1.64833733       5.50114401
Fe       5.86873643       3.29532850       0.02653592
Fe       5.86399446       4.98241875       1.41018566
Fe       7.32323107       3.31601624       1.38409775
Fe       7.33565682       4.95339923       0.03088536
Fe       5.88281993       3.28591854       2.71988874
Fe       5.84963543       4.96361432       4.08270001
Fe       7.35977394       3.31571090       4.13722961
Fe       7.31156917       4.92305798       2.75623195
Fe       5.81914058       3.27309582       5.49070023
Fe       5.88268802       4.91116886       6.89329315
Fe       7.31614871       3.31283365       6.86751144
Fe       7.33870727       4.97346860       5.46677338
Fe       5.87609274       6.56931277      -0.00869115
Fe       5.87250921       8.24018682       1.37350138
Fe       7.33839855       6.56194496       1.36608600
Fe       7.33485404       8.24876602       0.00182772
Fe       5.88244605       6.60414757       2.69961368
Fe       5.88041216       8.21783364       4.13698526
Fe       7.31321635       6.57562786       4.13207143
Fe       7.32348358       8.27192749       2.74422756
Fe       5.83523819       6.57990948       5.47655397
Fe       5.88319672       8.22961269       6.84781753
Fe       7.33253083       6.58478679       6.87097590
Fe       7.33187540       8.22998575       5.47466862
