108
Lattice="8.231488312365203 0.0 0.0 0.0 8.347495016873609 0.0 0.0 0.0 7.767143770399635" Properties=species:S:1:pos:R:3 id=sample_000660 pbc="F F F"
Fe       0.00239413      -0.01595480       0.01172816
Fe       0.00401089       1.40181473       1.30301538
Fe       1.35989812      -0.01105893       1.30949814
Fe       1.38137325       1.37663483       0.00211737
Fe      -0.01749226      -0.01361841       2.58063824
Fe       0.00266756       1.40922843       3.90204812
Fe       1.37853467       0.01131262       3.87379224
Fe       1.36307198       1.39192538       2.59345207
Fe      -0.01432378       0.00165835       5.16723552
Fe       0.00780585       1.38308153       6.47446931
Fe       1.38340131       0.00527894       6.47872580
Fe       1.36006032       1.39146684       5.17726227
Fe      -0.00979387       2.79485637      -0.00240834
Fe      -0.01100686       4.17059669       1.30427662
Fe       1.39011127       2.78406921       1.28872366
Fe       1.37312133       4.19030534       0.01322251
Fe      -0.00451288       2.78406762       2.58710597
Fe      -0.00925217       4.17232784       3.86321696
Fe       1.38489835       2.78607534       3.88693952
Fe       1.37642827       4.16278162       2.57330333
Fe       0.00570563       2.78138139       5.17761687
Fe       0.01333089       4.17849769       6.44979114
Fe       1.36863489       2.77283441       6.46938222
Fe       1.36200876       4.17903301       5.18622225
Fe      -0.00239276       5.56417779      -0.00843995
Fe      -0.00394994       6.97294138       1.29589315
Fe       1.36155345       5.57378562       1.28173856
Fe       1.40129355       6.95420063      -0.00704236
Fe      -0.01452169       5.58134255       2.60521789
Fe      -0.00140267       6.94092134       3.86782650
Fe       1.36426009       5.57639816       3.86491153
Fe       1.36709728       6.97411626       2.58971153
Fe      -0.00233037       5.55505627       5.16900162
Fe      -0.00382602       6.97445909       6.47275094
Fe       1.37141541       5.54370055       6.46879872
Fe       1.38267297       6.96438490       5.18604463
Fe       2.75261585      -0.00414937       0.00922917
Fe       2.74455268       1.39240763       1.28746576
Fe       4.11198508       0.00433946       1.28465436
Fe       4.11576899       1.39283928      -0.00486504
Fe       2.75731878      -0.01245900       2.58199041
Fe       2.74624015       1.38589572       3.89155232
Fe       4.10661797       0.00448534       3.90050977
Fe       4.13233654       1.39531979       2.58982094
Fe       2.76157396      -0.00270286       5.17533154
Fe       2.72833918       1.37711081       6.47610070
Fe       4.09233879       0.00474136       6.46731543
Fe       4.11450745       1.40506616       5.17883788
Fe       2.73683841       2.77686587      -0.00537582
Fe       2.73705407       4.17215825       1.29881105
Fe       4.11135713       2.78077264       1.29220780
Fe       4.10353078       4.19395467      -0.01493558
Fe       2.72303206       2.78997018       2.59673939
Fe       2.73374605       4.16841086       3.89897411
Fe       4.11685051       2.78093818       3.88566564
Fe       4.11226215       4.18476125       2.59213121
Fe       2.74926624       2.77385535       5.18628747
Fe       2.73554322       4.15848607       6.47515175
Fe       4.12570346       2.78010769       6.48497254
Fe       4.12612872       4.17212548       5.17867298
Fe       2.75152655       5.55547291      -0.02631337
Fe       2.75646065       6.92271105       1.28767293
Fe       4.12926076       5.57474414       1.31349980
Fe       4.12128765       6.94711461       0.01687248
Fe       2.75815214       5.55752120       2.58046647
Fe       2.74682266       6.97126943       3.88483846
Fe       4.10863461       5.56707285       3.88087927
Fe       4.11072805       6.97178692       2.60208164
Fe       2.74832347       5.56398246       5.18216661
Fe       2.74657947       6.93720727       6.46947834
Fe       4.10479028       5.56042472       6.48186547
Fe       4.12642139       6.97928830       5.18791839
Fe       5.47041094       0.02515278      -0.01338174
Fe       5.48621171       1.38927538       1.28723666
Fe       6.83761617       0.00326232       1.30226299
Fe       6.86493195       1.38710649       0.00128093
Fe       5.50099024       0.01634416       2.57870751
Fe       5.50507792       1.39694072       3.90003546
Fe       6.87813048      -0.00273031       3.86780716
Fe       6.85225529       1.40114951       2.60838663
Fe       5.50029917      -0.00355962       5.17828883
Fe       5.48129520       1.38986787       6.46742301
Fe       6.85721549       0.00581158       6.48007790
Fe       6.85013559       1.39477783       5.17488528
Fe       5.47387283       2.77291493      -0.00276039
Fe       5.47405887       4.17434137       1.28543574
Fe       6.85555241       2.79757345       1.29138532
Fe       6.85222601       4.18837655      -0.00344157
Fe       5.49060111       2.79308794       2.59355211
Fe       5.48824073       4.16235776       3.88599697
Fe       6.86444120       2.77693607       3.89304956
Fe       6.85775561       4.17712482       2.57116123
Fe       5.47389470       2.79361208       5.18913642
Fe       5.47550937       4.17999215       6.44730853
Fe       6.85564530       2.78378351       6.46536524
Fe       6.86136144       4.17727263       5.19770014
Fe       5.49983780       5.56246787       0.01638025
Fe       5.48931598       6.94031610       1.29564316
Fe       6.86101329       5.56626748       1.29889610
Fe       6.85130924       6.95519177      -0.02052412
Fe       5.50493277       5.57158773       2.57906755
Fe       5.50016059       6.95548763       3.89219097
Fe       6.86155051       5.55444352       3.86466213
Fe       6.86188921       6.96878776       2.57916766
Fe       5.49398202       5.56978968       5.17247082
Fe       5.48772696       6.97631344       6.46876947
Fe       6.85138028       5.56454866       6.48132191
Fe       6.87440523       6.97809709       5.18172057
