4
Lattice="65.97259246110985 0.0 0.0 0.0 65.97259246110985 0.0 0.0 0.0 65.97259246110985" Properties=species:S:1:pos:R:3:initial_magmoms:R:1 id=sample_001572 pbc="T T T"
Fe      32.63209970      32.61550947      32.63176426       2.30000000
Fe      34.05701670      34.05301776      31.17368384       2.30000000
Fe      34.05158814      31.18571367      34.04878081       2.30000000
Fe      31.20455883      34.05079718      34.05544828       2.30000000
