500
Lattice="32.78738672393359 0.0 0.0 0.0 34.73188712390175 0.0 0.0 0.0 33.50636717895255" Properties=species:S:1:pos:R:3 id=sample_000766 pbc="F F F"
Si       0.01736738       0.01897914      -0.02106773
Si      -0.00148912       3.47901933       3.32804439
Si       3.28011107      -0.00701213       3.34442892
Si       3.27394247       3.48528610      -0.01075184
Si       0.00806919      -0.00290783       6.69906396
Si      -0.00169156       3.48419706      10.05273526
Si       3.27869492      -0.01722558      10.06248572
Si       3.25355954       3.45408231       6.71433799
Si       0.00424398      -0.00469168      13.39248615
Si      -0.00921923       3.47945276      16.75675536
Si       3.27855149       0.00221171      16.76016963
Si       3.28708377       3.45653233      13.37353247
Si      -0.00048639      -0.00045378      20.11857365
Si      -0.00513693       3.46650429      23.44412375
Si       3.30379106       0.00106624      23.45808788
Si       3.28986194       3.46727150      20.11926831
Si       0.02476392      -0.02874709      26.82905398
Si       0.00131246       3.47623270      30.16749652
Si       3.28003761       0.00213699      30.15673009
Si       3.27826010       3.47693818      26.80914003
Si       0.00338158       6.94836363      -0.01396963
Si      -0.00741502      10.43120924       3.34147389
Si       3.27620819       6.96329471       3.34294054
Si       3.28660583      10.42111823       0.00875687
Si       0.02601656       6.95286594       6.70474021
Si      -0.00482012      10.40218555      10.06251050
Si       3.30654681       6.94169351      10.05745243
Si       3.28584172      10.41585971       6.72556924
Si      -0.00645997       6.96065016      13.40234425
Si       0.00381631      10.42013890      16.74008342
Si       3.28215396       6.95124845      16.75035501
Si       3.27860652      10.41462038      13.39325207
Si       0.00607608       6.94283929      20.08942178
Si       0.00859559      10.41977687      23.46043214
Si       3.30026837       6.94959001      23.44311191
Si       3.29861992      10.40127770      20.10655715
Si       0.01606219       6.94834123      26.81188131
Si       0.00737306      10.43913589      30.15193772
Si       3.28286048       6.95892661      30.15585425
Si       3.28732691      10.42861104      26.79863698
Si       0.01045534      13.87324706      -0.00800490
Si       0.01266903      17.37651622       3.35923832
Si       3.28364231      13.89553728       3.35232532
Si       3.28899660      17.36827889      -0.00801025
Si       0.00426917      13.90544251       6.69495207
Si      -0.00176008      17.36385715      10.05453952
Si       3.29165891      13.90178302      10.05756248
Si       3.27551197      17.36435169       6.69667303
Si      -0.00466238      13.89551056      13.41048017
Si      -0.01879375      17.36451892      16.75666573
Si       3.27064278      13.87528441      16.75166362
Si       3.28352480      17.36635723      13.40156609
Si      -0.01060532      13.87874592      20.09908732
Si      -0.00917649      17.35805695      23.43362829
Si       3.27802581      13.89402549      23.45257586
Si       3.28840026      17.37377272      20.09855218
Si       0.00339394      13.88901362      26.82386632
Si      -0.00552930      17.38507864      30.15555950
Si       3.26559148      13.89152129      30.16146860
Si       3.27932325      17.36590411      26.80733022
Si      -0.00564685      20.83377764      -0.00486800
Si       0.00682926      24.29543911       3.36161094
Si       3.28900368      20.84777156       3.35442288
Si       3.29258170      24.30366711      -0.00081149
Si      -0.00867861      20.83280935       6.70263411
Si      -0.00393420      24.28927855      10.06507898
Si       3.27462862      20.84845317      10.06153897
Si       3.28245643      24.31082631       6.70624976
Si       0.02572551      20.84275003      13.39848347
Si       0.00141858      24.31032874      16.75704576
Si       3.27609971      20.84113179      16.75736715
Si       3.27732262      24.31442606      13.39941725
Si      -0.00870525      20.83985998      20.11056580
Si      -0.00625968      24.30443434      23.46796824
Si       3.27336142      20.83136549      23.45673248
Si       3.28010936      24.28191601      20.10184432
Si       0.00933190      20.84931667      26.79792593
Si       0.01246275      24.32426410      30.16230609
Si       3.29401378      20.84957854      30.16653438
Si       3.26862359      24.30675127      26.80936551
Si      -0.00218475      27.76544607      -0.00093932
Si       0.00362020      31.24812308       3.35353718
Si       3.26066796      27.77333346       3.34569036
Si       3.26948808      31.26496757      -0.00194672
Si      -0.01371409      27.77805342       6.70931235
Si       0.00692427      31.24775914      10.05582834
Si       3.29205566      27.76973619      10.05090233
Si       3.27763064      31.27424959       6.69011166
Si       0.00879239      27.77412258      13.41066040
Si       0.01228434      31.24934769      16.74817348
Si       3.29486596      27.78390469      16.75024174
Si       3.27336912      31.25469491      13.41281328
Si      -0.01263492      27.79443393      20.08989537
Si       0.00194823      31.24940273      23.46187965
Si       3.28577850      27.80037928      23.45667493
Si       3.27209639      31.26731087      20.12879138
Si      -0.00768338      27.77205123      26.80966005
Si      -0.00291022      31.26310197      30.15779902
Si       3.29411407      27.76868983      30.17210953
Si       3.25389255      31.26273622      26.79855802
Si       6.56221064       0.00257097      -0.00739789
Si       6.55101342       3.46068108       3.35909521
Si       9.83995030       0.00398221       3.34288600
Si       9.82989145       3.50183896      -0.01610436
Si       6.56617870       0.01595863       6.71690611
Si       6.55494077       3.45457310      10.03946093
Si       9.83581223      -0.00686295      10.06882962
Si       9.83837757       3.47391417       6.72343052
Si       6.54642536       0.00446480      13.40326390
Si       6.57059242       3.47168284      16.74213438
Si       9.82658474       0.00475967      16.75515165
Si       9.85047763       3.46747781      13.41656585
Si       6.55363796      -0.00309065      20.10594107
Si       6.56311239       3.46795062      23.46043166
Si       9.81304779      -0.00041727      23.45093231
Si       9.81284822       3.48186408      20.11308810
Si       6.54041813       0.01509461      26.79971730
Si       6.55196961       3.46583214      30.16492927
Si       9.83285883      -0.00061597      30.16139491
Si       9.84341205       3.48549400      26.82239289
Si       6.55030052       6.93417902      -0.00368243
Si       6.54871307      10.41816312       3.34656261
Si       9.84642101       6.95102453       3.36967253
Si       9.85602543      10.42489011      -0.01981100
Si       6.54482138       6.95556737       6.70391097
Si       6.56078264      10.42967396      10.06020022
Si       9.84861403       6.94432214      10.02788174
Si       9.82668834      10.42530849       6.69494577
Si       6.54436690       6.94401921      13.40274467
Si       6.56245163      10.41701007      16.74056610
Si       9.83340982       6.94599779      16.73353385
Si       9.85513340      10.41813611      13.40736637
Si       6.55398462       6.94256381      20.10860118
Si       6.56982348      10.41489540      23.44597969
Si       9.85928407       6.94650153      23.44751691
Si       9.82457145      10.42977495      20.11419027
Si       6.54094237       6.95403547      26.80700054
Si       6.55202532      10.42855350      30.15346019
Si       9.82853497       6.94871737      30.15682499
Si       9.84510289      10.42251263      26.81213766
Si       6.55377333      13.88727768       0.00179452
Si       6.56083873      17.38389923       3.33955118
Si       9.85607700      13.87356137       3.36047579
Si       9.82543099      17.36817227      -0.00045822
Si       6.54465045      13.89798950       6.69677376
Si       6.57004101      17.37212574      10.06054513
Si       9.83912137      13.90240240      10.06015572
Si       9.84963222      17.36129911       6.69776504
Si       6.55996564      13.89979917      13.39033335
Si       6.54604725      17.37603769      16.75839637
Si       9.83090942      13.88013552      16.73812233
Si       9.83394700      17.36666668      13.41412938
Si       6.55744976      13.89656261      20.08749900
Si       6.55966081      17.36101170      23.46522118
Si       9.84441249      13.87923815      23.46351586
Si       9.85498400      17.37289193      20.10163913
Si       6.55185188      13.89702189      26.79318524
Si       6.54963158      17.38369451      30.14256099
Si       9.82036709      13.90342268      30.16925118
Si       9.83350911      17.36363898      26.80837047
Si       6.55627189      20.83455808       0.01820498
Si       6.56610809      24.32740963       3.35717385
Si       9.85444251      20.84648681       3.35569278
Si       9.84813518      24.31921788       0.01682452
Si       6.55109662      20.83367543       6.70904663
Si       6.56254927      24.32205167      10.05016836
Si       9.84900692      20.83911485      10.04336490
Si       9.83312989      24.32203471       6.69658723
Si       6.56184036      20.84590285      13.41087224
Si       6.57595444      24.31671111      16.76286039
Si       9.84584858      20.83861257      16.75430710
Si       9.84668198      24.30949440      13.39805066
Si       6.55969694      20.83619535      20.10421591
Si       6.56033708      24.31093356      23.46840324
Si       9.83507666      20.84874615      23.45327272
Si       9.85770814      24.31806482      20.11094312
Si       6.55218938      20.83254746      26.80630623
Si       6.58217693      24.33683295      30.16729906
Si       9.83293586      20.84908273      30.16186756
Si       9.83127402      24.30973352      26.78958312
Si       6.56036108      27.78075744       0.00569822
Si       6.57058245      31.25895508       3.35456519
Si       9.83504728      27.78994608       3.33799779
Si       9.82831459      31.26775153      -0.01120674
Si       6.55989529      27.79024715       6.71953146
Si       6.55242985      31.25933225      10.05204084
Si       9.82956132      27.79906222      10.04405559
Si       9.85899930      31.26128022       6.70770466
Si       6.55751899      27.78939224      13.38386484
Si       6.55310711      31.27226449      16.76315571
Si       9.83508269      27.78865802      16.73927312
Si       9.84779621      31.25868883      13.40119490
Si       6.55510097      27.78797883      20.09185024
Si       6.53934067      31.25360909      23.46437649
Si       9.84717990      27.77750131      23.44663278
Si       9.83940216      31.26429262      20.10612937
Si       6.54496996      27.77150172      26.80208861
Si       6.55181638      31.26759013      30.14351233
Si       9.82993264      27.78063353      30.15303587
Si       9.83339900      31.25184195      26.80237043
Si      13.10705552       0.00741744      -0.00040283
Si      13.12725383       3.46576181       3.35231762
Si      16.38844414      -0.01421996       3.35181477
Si      16.40153192       3.46017553      -0.00422704
Si      13.12410038      -0.00036247       6.70115939
Si      13.11428168       3.47391473      10.04375129
Si      16.39057371      -0.01939320      10.04377732
Si      16.38984789       3.47765843       6.69776272
Si      13.10276840       0.00127940      13.41159293
Si      13.10544882       3.46792604      16.75233921
Si      16.40078784      -0.00927277      16.74077909
Si      16.39217456       3.48766449      13.40664984
Si      13.11564317       0.00606024      20.10746700
Si      13.11837736       3.47799066      23.45821776
Si      16.38376214      -0.00680007      23.45948950
Si      16.40890574       3.45843169      20.09792262
Si      13.10977871      -0.00290326      26.81566373
Si      13.10910647       3.47809095      30.15985650
Si      16.40035712       0.01047763      30.16961967
Si      16.36706663       3.47498370      26.80158411
Si      13.12170270       6.96206907      -0.00408953
Si      13.10581096      10.41161038       3.34693910
Si      16.38718151       6.96601158       3.35859472
Si      16.40448866      10.40729954      -0.00270035
Si      13.11153515       6.94049689       6.69870977
Si      13.11941860      10.41152181      10.05352255
Si      16.38966560       6.92749076      10.05267145
Si      16.40013853      10.41950807       6.70555746
Si      13.13090376       6.95613390      13.39009379
Si      13.10723080      10.42937102      16.74760831
Si      16.39832372       6.93727842      16.76642803
Si      16.39711869      10.42497655      13.40009551
Si      13.12845107       6.94515388      20.09114182
Si      13.11193832      10.40521912      23.44627570
Si      16.40236119       6.93957365      23.46064255
Si      16.39039756      10.43350627      20.11190309
Si      13.12485789       6.94869736      26.78613783
Si      13.12841182      10.41294447      30.15224839
Si      16.40181907       6.93790123      30.13593672
Si      16.38584593      10.44614339      26.79794767
Si      13.11737766      13.89780889       0.00532480
Si      13.13129802      17.36461179       3.35897167
Si      16.39659013      13.87948910       3.34373775
Si      16.41648250      17.37579154      -0.00592951
Si      13.11868452      13.89732666       6.70408537
Si      13.12094530      17.35749528      10.06137558
Si      16.38472774      13.90820103      10.05319995
Si      16.39591674      17.36235363       6.70083453
Si      13.10158870      13.92296723      13.39131987
Si      13.11175502      17.35367096      16.75041700
Si      16.40188298      13.88988222      16.72984048
Si      16.39226318      17.37479568      13.38553322
Si      13.11337199      13.88406941      20.11339825
Si      13.11365492      17.35079249      23.44265913
Si      16.39316613      13.91147374      23.46580948
Si      16.40317476      17.36008337      20.10371261
Si      13.10799110      13.88754803      26.79555165
Si      13.11993271      17.37056949      30.15681964
Si      16.37911996      13.90126577      30.14778688
Si      16.40210103      17.34877106      26.81904773
Si      13.12517884      20.83448709       0.01828893
Si      13.12275132      24.30670796       3.37403387
Si      16.38991395      20.83328732       3.35332356
Si      16.38447494      24.32367095      -0.00508276
Si      13.12358673      20.82147240       6.69822451
Si      13.12246451      24.31663410      10.04650789
Si      16.40230109      20.84222960      10.04834958
Si      16.39763757      24.32526950       6.70446887
Si      13.14563310      20.82726276      13.42192429
Si      13.09677851      24.31085476      16.76101120
Si      16.37247992      20.84507678      16.75312678
Si      16.39700432      24.29841557      13.39980638
Si      13.10491972      20.83781573      20.11092241
Si      13.11400060      24.31458897      23.46050534
Si      16.40536087      20.83826752      23.44830371
Si      16.39601275      24.31431332      20.10418659
Si      13.10664898      20.82358785      26.80750508
Si      13.10795926      24.32026260      30.16272404
Si      16.38917951      20.83830713      30.14824566
Si      16.41795967      24.31008639      26.81053528
Si      13.11653113      27.79326235      -0.01228225
Si      13.13802736      31.23049669       3.34971287
Si      16.39324180      27.80429901       3.36319092
Si      16.39609871      31.26440215      -0.00804830
Si      13.11417245      27.78233995       6.70286844
Si      13.11469179      31.25318607      10.05763671
Si      16.40071870      27.78971736      10.04410736
Si      16.40670910      31.26666522       6.70020378
Si      13.11735682      27.80079547      13.40846764
Si      13.13111807      31.25026025      16.77000663
Si      16.38412391      27.80107896      16.75269254
Si      16.40101003      31.24544621      13.39624306
Si      13.09781693      27.78916732      20.12305235
Si      13.11277785      31.26462637      23.44344791
Si      16.37930304      27.77668459      23.46093457
Si      16.38882521      31.24129695      20.10489100
Si      13.10701553      27.81383865      26.79567785
Si      13.10349254      31.25169995      30.14237587
Si      16.37979770      27.78961092      30.16850734
Si      16.38251324      31.25191467      26.79394188
Si      19.65924193       0.00362574      -0.01153372
Si      19.66950401       3.46906905       3.36889871
Si      22.94916197      -0.00510522       3.36165031
Si      22.97066524       3.47803784      -0.01558187
Si      19.67883303      -0.00728769       6.69278418
Si      19.66966547       3.46416452      10.04514148
Si      22.94755854      -0.01048697      10.05477330
Si      22.95343900       3.47474046       6.71205699
Si      19.66087319       0.00294519      13.40395872
Si      19.66118960       3.48739433      16.75110177
Si      22.94870440      -0.00996304      16.78008032
Si      22.95396239       3.47938520      13.40068133
Si      19.68040241       0.01027205      20.09743914
Si      19.67508035       3.47686954      23.44529117
Si      22.94715935       0.00197794      23.45586903
Si      22.96087090       3.47628940      20.10192075
Si      19.66071941       0.00145617      26.78916340
Si      19.66867649       3.48176704      30.15685621
Si      22.94335601      -0.00300498      30.15399362
Si      22.94538576       3.48696100      26.81830227
Si      19.67875413       6.93019173      -0.01020928
Si      19.67618003      10.42267676       3.33824520
Si      22.92999197       6.96634623       3.36519590
Si      22.94913494      10.40449154       0.00273418
Si      19.66798861       6.94256098       6.70261491
Si      19.66592106      10.44381300      10.04865555
Si      22.94542796       6.96928040      10.04910153
Si      22.95231535      10.41636267       6.70536942
Si      19.68227081       6.92188764      13.40338524
Si      19.67909382      10.39620837      16.74420423
Si      22.95639516       6.94567784      16.76119626
Si      22.96821436      10.42315315      13.40642002
Si      19.68530835       6.93733442      20.11317102
Si      19.65939848      10.41266566      23.46294815
Si      22.95646298       6.96379081      23.46487750
Si      22.93812599      10.42318426      20.08523405
Si      19.67271080       6.93095212      26.80107572
Si      19.67356954      10.41496416      30.15119315
Si      22.95077690       6.95130876      30.15121537
Si      22.95617881      10.40944888      26.80906017
Si      19.69134440      13.90194978       0.00340227
Si      19.66673442      17.36691023       3.34781933
Si      22.94232208      13.87652066       3.36573757
Si      22.95116466      17.36381021      -0.02336836
Si      19.66017548      13.88473295       6.70468663
Si      19.68236349      17.35508413      10.06176244
Si      22.94355090      13.91453274      10.04340428
Si      22.94619118      17.37233450       6.68911636
Si      19.68263568      13.87644144      13.41459755
Si      19.68257056      17.37691337      16.74790142
Si      22.95235679      13.89222563      16.75590334
Si      22.95772100      17.36672111      13.40300004
Si      19.67039229      13.90109128      20.11505749
Si      19.69261887      17.35661097      23.43683674
Si      22.96105266      13.88781553      23.46143569
Si      22.94125402      17.36802585      20.09802802
Si      19.67467104      13.89492253      26.82021814
Si      19.67115057      17.36579413      30.16147152
Si      22.95044278      13.88816871      30.15038379
Si      22.93730925      17.35783856      26.80927094
Si      19.67947541      20.82975233      -0.01087631
Si      19.67293976      24.31565027       3.34516983
Si      22.94774976      20.83586157       3.33588030
Si      22.95927955      24.31264109       0.00800711
Si      19.67393224      20.83945797       6.70092645
Si      19.67727043      24.31424254      10.04525076
Si      22.95197557      20.84473035      10.05793690
Si      22.95829659      24.30119827       6.70646396
Si      19.70158452      20.82287985      13.37852074
Si      19.66203889      24.32753347      16.76388545
Si      22.94097253      20.83636053      16.74527398
Si      22.95215392      24.29768844      13.39799848
Si      19.67793163      20.85489630      20.10668445
Si      19.68498106      24.29834397      23.45676243
Si      22.94915198      20.82107262      23.46339988
Si      22.94111435      24.30702969      20.10071594
Si      19.67564334      20.83610145      26.78440645
Si      19.69080101      24.32934719      30.13738955
Si      22.96058318      20.82969926      30.13812926
Si      22.95389379      24.31627611      26.79697666
Si      19.66551745      27.79178189       0.00053428
Si      19.65380745      31.23713635       3.35895855
Si      22.94525217      27.80342298       3.35948651
Si      22.95036144      31.27682838      -0.00360526
Si      19.69092938      27.78658007       6.70721779
Si      19.66108892      31.25138742      10.04491641
Si      22.95755010      27.79798276      10.06277636
Si      22.97190738      31.26537164       6.69299827
Si      19.66569774      27.78391401      13.39899281
Si      19.68739880      31.26806928      16.74682409
Si      22.95529663      27.78128634      16.75753122
Si      22.96002559      31.24128991      13.41375600
Si      19.67455388      27.80280173      20.10522182
Si      19.66602784      31.26299170      23.44478302
Si      22.94411297      27.79275576      23.45591574
Si      22.94643731      31.26477272      20.11206264
Si      19.66832304      27.79765266      26.80383585
Si      19.65180204      31.27031946      30.15680633
Si      22.96460706      27.79072444      30.14962775
Si      22.92881525      31.24061865      26.80372948
Si      26.20885712       0.00989412      -0.00825198
Si      26.21867053       3.48231795       3.36788617
Si      29.49726630       0.00285144       3.35212900
Si      29.51373663       3.46187258       0.00508619
Si      26.23045811      -0.01431883       6.68457698
Si      26.22703896       3.48558980      10.05353724
Si      29.51334363      -0.00966402      10.04136700
Si      29.51555039       3.47525810       6.70509699
Si      26.23981256      -0.01397412      13.38191674
Si      26.22293121       3.47192978      16.75904543
Si      29.51181451      -0.01620158      16.76196216
Si      29.51042848       3.46592063      13.39777388
Si      26.23306500      -0.00683820      20.08626281
Si      26.22061704       3.47825846      23.46659380
Si      29.51780169      -0.00201240      23.44570778
Si      29.51143514       3.48401106      20.10065332
Si      26.22648682      -0.00116208      26.81291567
Si      26.19863398       3.48657323      30.15416214
Si      29.50779274       0.01706611      30.16070777
Si      29.50621958       3.48040742      26.79254920
Si      26.22475133       6.95688946       0.00666427
Si      26.23209566      10.43136060       3.36931378
Si      29.50866847       6.92982801       3.35737468
Si      29.52686132      10.42723461       0.00641607
Si      26.24120690       6.93002074       6.70983267
Si      26.23670346      10.43749121      10.04969244
Si      29.50000016       6.96037339      10.05997917
Si      29.51181144      10.43200180       6.70642609
Si      26.25186265       6.94251205      13.39399237
Si      26.21642320      10.41556843      16.77440648
Si      29.51659765       6.95602000      16.76400856
Si      29.48683607      10.43762186      13.41016704
Si      26.21575471       6.93284797      20.09362409
Si      26.24011003      10.41329035      23.46454313
Si      29.52086604       6.94731082      23.44709800
Si      29.48923271      10.42555475      20.10319735
Si      26.23825029       6.95458269      26.81830097
Si      26.24039088      10.40814001      30.14628352
Si      29.50612600       6.94847507      30.15876574
Si      29.50825370      10.40275803      26.80708352
Si      26.23604903      13.90221743       0.00830445
Si      26.23056114      17.36866850       3.35698694
Si      29.50921122      13.88241783       3.35439217
Si      29.51909165      17.36291735      -0.00272944
Si      26.24713433      13.88463729       6.69808654
Si      26.22631522      17.35970207      10.04920453
Si      29.52190209      13.87977205      10.04167898
Si      29.50457357      17.36585968       6.71124640
Si      26.22192127      13.89390581      13.38538730
Si      26.23720467      17.35119284      16.75944224
Si      29.51028973      13.90712286      16.74796094
Si      29.51662917      17.36764908      13.38840303
Si      26.21959260      13.88505513      20.09969232
Si      26.22704049      17.36934126      23.45703525
Si      29.51768040      13.91030304      23.44866092
Si      29.50464325      17.37704473      20.09805297
Si      26.23308202      13.88075930      26.80366613
Si      26.22429680      17.36889881      30.15379159
Si      29.51324387      13.90349253      30.14821308
Si      29.49909174      17.36463922      26.79134848
Si      26.23491663      20.84985225       0.01101534
Si      26.24334931      24.31462199       3.33569622
Si      29.51680770      20.84378643       3.36356056
Si      29.50779473      24.30175233       0.00427968
Si      26.21561853      20.82759837       6.70038226
Si      26.22706679      24.32149776      10.04890016
Si      29.50355970      20.86400881      10.06146397
Si      29.50628164      24.31274678       6.70048904
Si      26.24337721      20.83953495      13.40055843
Si      26.22111051      24.29832565      16.75459698
Si      29.49016122      20.83955208      16.76794814
Si      29.50618259      24.31156336      13.40825021
Si      26.23358602      20.83299482      20.10527683
Si      26.22215307      24.32289362      23.46016935
Si      29.52513913      20.85581082      23.44153559
Si      29.50078746      24.31115794      20.10778901
Si      26.21601658      20.81579368      26.80551746
Si      26.21211795      24.31312289      30.14665335
Si      29.49175801      20.83316179      30.14443700
Si      29.49293941      24.30498833      26.81095519
Si      26.22620059      27.78735865       0.00125320
Si      26.23106122      31.24676840       3.34969246
Si      29.51346199      27.79335311       3.35846458
Si      29.48486875      31.27195656       0.00154639
Si      26.22459059      27.78294645       6.70688388
Si      26.22088933      31.26701432      10.05297897
Si      29.51508950      27.76927443      10.06818063
Si      29.49457429      31.24427661       6.68809575
Si      26.23709009      27.77634140      13.40038456
Si      26.22924461      31.26927097      16.75518475
Si      29.51413482      27.79749910      16.75222970
Si      29.51023102      31.26862946      13.40382913
Si      26.23885444      27.78846901      20.09065307
Si      26.23244192      31.25330992      23.46589288
Si      29.50553601      27.77316043      23.43893870
Si      29.51358735      31.26697955      20.10464232
Si      26.22403295      27.78388977      26.80496196
Si      26.22850601      31.25146182      30.16037098
Si      29.50248053      27.76905300      30.15738393
Si      29.50546688      31.25018196      26.79610592
