256
Lattice="15.430302655901235 0.0 0.0 0.0 17.492547467574244 0.0 0.0 0.0 20.765401934912862" Properties=species:S:1:pos:R:3 id=sample_000111 pbc="F F F"
Au      -0.01430188      -0.02681922      -0.00879513
Au       0.03467318       2.18436416       2.59537834
Au       1.94588986       0.00058155       2.59657710
Au       1.93599252       2.16195391      -0.01424013
Au      -0.00501602       0.00428147       5.17348705
Au      -0.02314965       2.21514518       7.78579560
Au       1.92454391       0.00763699       7.81697548
Au       1.91866980       2.16357479       5.17748934
Au      -0.01415738      -0.00624821      10.39811382
Au       0.00569687       2.18957036      12.99286441
Au       1.94274241       0.00108503      13.00988241
Au       1.91065151       2.17615212      10.40101391
Au       0.02849214       0.00612129      15.59802335
Au      -0.00340821       2.20077273      18.19558378
Au       1.91092762      -0.01601395      18.17943288
Au       1.95864103       2.17218430      15.57947214
Au      -0.02103619       4.40479314       0.00872168
Au      -0.00297451       6.55188908       2.62420203
Au       1.90559596       4.38575206       2.63503368
Au       1.91891259       6.53937009       0.00736824
Au      -0.00979385       4.35289658       5.19546973
Au      -0.00483409       6.52516146       7.80218587
Au       1.91801248       4.36355917       7.78008723
Au       1.94661763       6.53310739       5.21267721
Au      -0.00191713       4.39730086      10.39105558
Au      -0.01260461       6.53651152      12.99185827
Au       1.91350790       4.35512575      12.97051460
Au       1.94718550       6.57144332      10.36811000
Au      -0.02022004       4.38153001      15.60202699
Au       0.00333641       6.55120746      18.15303288
Au       1.92356047       4.36771679      18.18219147
Au       1.90776690       6.54863585      15.54948019
Au      -0.00894282       8.76180552       0.00090518
Au      -0.00743975      10.93064171       2.58994061
Au       1.90825703       8.76626168       2.59862320
Au       1.95128246      10.92765010       0.00596248
Au      -0.00845769       8.74424271       5.20643082
Au      -0.01717288      10.97616435       7.76859245
Au       1.93852380       8.72829419       7.78128107
Au       1.96063985      10.94151820       5.15652861
Au       0.03546377       8.76509311      10.37594337
Au      -0.00267778      10.93153966      12.98482478
Au       1.91688188       8.77709632      12.93906655
Au       1.93573766      10.95668889      10.36737218
Au       0.01553663       8.75994948      15.56933606
Au      -0.00265068      10.91140839      18.16858893
Au       1.90958707       8.72169554      18.17889864
Au       1.92620725      10.88232725      15.57169274
Au      -0.01387572      13.10977171       0.03398736
Au      -0.00485460      15.28168885       2.58331969
Au       1.90633050      13.11438192       2.61357068
Au       1.91856334      15.27373978       0.00740938
Au       0.01740578      13.14450137       5.19541850
Au      -0.00218924      15.29245937       7.77343979
Au       1.92513283      13.10401929       7.79898325
Au       1.93190016      15.26077641       5.19061696
Au       0.01205364      13.15078057      10.33187154
Au      -0.01369035      15.29960333      12.98463240
Au       1.94354734      13.10081512      12.98282989
Au       1.93818762      15.31590163      10.40148203
Au       0.03470434      13.08097539      15.57372697
Au      -0.01749119      15.28215322      18.15700897
Au       1.93827636      13.15701212      18.18434245
Au       1.93320363      15.30221566      15.51087392
Au       3.88773714       0.01353564       0.01918327
Au       3.82699332       2.21607648       2.58035017
Au       5.81379346       0.00184024       2.62065018
Au       5.77952418       2.18813353      -0.01269553
Au       3.85895007      -0.00384349       5.18588340
Au       3.84936194       2.18494466       7.79687976
Au       5.80515927       0.04016060       7.76891249
Au       5.77338094       2.19125729       5.18681467
Au       3.85345437       0.01217706      10.36943635
Au       3.87155237       2.19913655      12.99153370
Au       5.75799064       0.05670693      12.95909229
Au       5.78398861       2.22890663      10.39529408
Au       3.85812783      -0.03494023      15.56921403
Au       3.85445163       2.21364619      18.20968314
Au       5.77994289       0.01739910      18.15713810
Au       5.76372128       2.18670721      15.56415012
Au       3.83181270       4.38897713       0.00995465
Au       3.84718682       6.53272300       2.58854101
Au       5.82252649       4.38240901       2.56058205
Au       5.81232893       6.55757612      -0.00331155
Au       3.85895756       4.35339441       5.17636278
Au       3.85672775       6.57482730       7.79377350
Au       5.76979582       4.36690262       7.78615345
Au       5.79173264       6.57399801       5.15051467
Au       3.82609747       4.36486016      10.40797567
Au       3.87191041       6.52166185      12.96929718
Au       5.81112322       4.38994074      12.94269896
Au       5.83221968       6.58420112      10.36141792
Au       3.88171189       4.35014266      15.60952846
Au       3.86228089       6.55392683      18.17325097
Au       5.79173141       4.38463732      18.14141851
Au       5.76488193       6.56809181      15.57965620
Au       3.87808956       8.76133970      -0.01664362
Au       3.84682345      10.93713034       2.59735171
Au       5.77197607       8.74769938       2.62847782
Au       5.78561449      10.90686973       0.00552950
Au       3.79095425       8.76463372       5.19609042
Au       3.85964653      10.89814657       7.78737619
Au       5.77346522       8.74166799       7.82749125
Au       5.80416720      10.95983489       5.19757438
Au       3.86273523       8.76858668      10.37994945
Au       3.87149115      10.93030638      12.99250372
Au       5.79291618       8.72134258      12.96338000
Au       5.77945550      10.92233278      10.41110362
Au       3.83627591       8.75100289      15.55661427
Au       3.88421011      10.93434569      18.14449207
Au       5.78816311       8.76740910      18.20450419
Au       5.79356236      10.94092651      15.57740936
Au       3.85394408      13.12909963      -0.00071561
Au       3.83626396      15.30246571       2.56326751
Au       5.76388854      13.10079110       2.58640079
Au       5.82040218      15.28500988      -0.02125659
Au       3.86968867      13.12984043       5.20350695
Au       3.88822178      15.31884506       7.80534172
Au       5.76990304      13.09467712       7.80041749
Au       5.76652774      15.31072412       5.19550153
Au       3.87969600      13.17710931      10.39674866
Au       3.84451611      15.27224839      12.98852612
Au       5.75622690      13.14396704      12.98656422
Au       5.80960313      15.33652901      10.36892292
Au       3.88456329      13.10914174      15.57592913
Au       3.88546627      15.31519774      18.17188299
Au       5.78762620      13.12683994      18.14779849
Au       5.80710781      15.27696702      15.56371357
Au       7.69524356       0.01429526       0.00407680
Au       7.69313754       2.16809111       2.59622154
Au       9.63802559      -0.00188294       2.59629307
Au       9.65236814       2.17606265       0.00357752
Au       7.68408722      -0.02632009       5.19041297
Au       7.70825345       2.15324789       7.81064625
Au       9.63086860      -0.03444724       7.74764668
Au       9.65296707       2.18655978       5.21219612
Au       7.67727418      -0.01881180      10.37628651
Au       7.72859607       2.17547748      12.97024339
Au       9.62400649       0.02840485      12.98289542
Au       9.66888510       2.17513383      10.36492959
Au       7.74037188       0.01668973      15.56583956
Au       7.71923023       2.16302538      18.15652653
Au       9.64196836       0.00578635      18.21922615
Au       9.67145164       2.17986447      15.58340578
Au       7.73303484       4.36612545      -0.00275112
Au       7.73885548       6.53836046       2.58912879
Au       9.66346341       4.36684851       2.59233371
Au       9.64190674       6.52535653       0.00650810
Au       7.72152280       4.39497840       5.18254874
Au       7.66657462       6.53769759       7.76246060
Au       9.63140948       4.38118472       7.83698866
Au       9.65952709       6.54580794       5.20235191
Au       7.70409012       4.36487074      10.37100154
Au       7.69706240       6.54579181      12.98775038
Au       9.66320954       4.37629591      13.00156322
Au       9.62133240       6.54728832      10.38106131
Au       7.66744974       4.37396606      15.56687621
Au       7.71826275       6.56123655      18.16874426
Au       9.66301599       4.38843074      18.21412142
Au       9.65107364       6.53858896      15.57557411
Au       7.67589846       8.73127890      -0.00094385
Au       7.72008357      10.92498617       2.64034670
Au       9.64202073       8.74600541       2.59213857
Au       9.63077417      10.94775439       0.00556220
Au       7.70281391       8.77715495       5.16913925
Au       7.70079711      10.92138607       7.74790936
Au       9.66629112       8.71011283       7.80073230
Au       9.65949158      10.95059445       5.12541096
Au       7.70671288       8.75458267      10.34565075
Au       7.76551076      10.91677640      12.96509669
Au       9.64025466       8.72029412      12.96331689
Au       9.64920719      10.92842236      10.39961867
Au       7.71461763       8.76195929      15.62709902
Au       7.70872097      10.91752562      18.15828903
Au       9.65080368       8.78009396      18.19358817
Au       9.66353267      10.91928827      15.61584945
Au       7.73929154      13.13584641      -0.02807947
Au       7.70804605      15.31381542       2.59494693
Au       9.63818870      13.11301935       2.58540243
Au       9.68024147      15.32288376       0.01992646
Au       7.70888598      13.13728260       5.16292917
Au       7.72532910      15.29205682       7.77313598
Au       9.64277110      13.10123996       7.78930047
Au       9.63325428      15.28145780       5.24605256
Au       7.70427878      13.12361113      10.38250467
Au       7.70698118      15.29505251      12.94593961
Au       9.61329305      13.11865318      12.98095266
Au       9.64685859      15.26665286      10.39113916
Au       7.72829949      13.13111918      15.58499291
Au       7.73667246      15.33651851      18.15819449
Au       9.66206320      13.14178380      18.17019991
Au       9.60298410      15.31797371      15.61441423
Au      11.56716239      -0.00541473      -0.01726094
Au      11.53108282       2.18346282       2.56073212
Au      13.51877054       0.03300940       2.58126209
Au      13.50816674       2.16721447      -0.02517338
Au      11.56665721       0.02144261       5.20499551
Au      11.54208120       2.20951296       7.78133618
Au      13.49132807       0.00871862       7.77760269
Au      13.50405618       2.16858066       5.20697549
Au      11.54759478       0.03653463      10.37180768
Au      11.57237931       2.18344460      12.96881064
Au      13.49603942      -0.04607081      12.97033283
Au      13.47134588       2.16280854      10.36370284
Au      11.59170883      -0.00475264      15.56123241
Au      11.57507575       2.15849131      18.16640873
Au      13.52043522      -0.00909005      18.18548831
Au      13.46305596       2.18227885      15.57467320
Au      11.57826814       4.37636732       0.01012245
Au      11.59986857       6.52783702       2.59384649
Au      13.49629158       4.34191851       2.60613638
Au      13.48236341       6.54115698      -0.01508090
Au      11.57050692       4.36580743       5.17531307
Au      11.56991839       6.55261768       7.82738597
Au      13.50877683       4.37417567       7.77910868
Au      13.50808708       6.57360454       5.18207064
Au      11.58493847       4.36591345      10.36162249
Au      11.56647231       6.56110196      12.95259757
Au      13.47505309       4.33037293      12.94658907
Au      13.49305815       6.55996023      10.39361226
Au      11.56395413       4.38289464      15.55838820
Au      11.55329525       6.54241074      18.17384930
Au      13.48611573       4.37074186      18.17074180
Au      13.48690295       6.57207719      15.56861227
Au      11.56557688       8.74991393       0.03074083
Au      11.58723743      10.94912108       2.59684990
Au      13.48939373       8.73509490       2.60048652
Au      13.49681710      10.96307996       0.02923707
Au      11.56932745       8.73893824       5.20724778
Au      11.61220832      10.93501187       7.77570808
Au      13.49714215       8.73766017       7.80175598
Au      13.49484386      10.90435240       5.17701227
Au      11.56519531       8.77314200      10.37876378
Au      11.58318118      10.94307592      12.98201174
Au      13.49760133       8.78434463      12.97188021
Au      13.48891061      10.92132920      10.38066546
Au      11.56739783       8.72195942      15.53682264
Au      11.57048596      10.91814214      18.14059547
Au      13.51214732       8.78307096      18.15354053
Au      13.49768299      10.97729023      15.60542128
Au      11.54347709      13.12565342       0.01337403
Au      11.55362131      15.29577512       2.56208611
Au      13.47262382      13.13351139       2.59516760
Au      13.52587360      15.34551447       0.02931571
Au      11.59058159      13.14629490       5.18320298
Au      11.57174759      15.31820698       7.80893684
Au      13.49209729      13.09411007       7.80645138
Au      13.51658296      15.31365282       5.16538841
Au      11.56477331      13.09839687      10.42197979
Au      11.58764712      15.32140802      12.96594909
Au      13.48488390      13.13005400      12.96171552
Au      13.51908842      15.28541403      10.37351393
Au      11.58066855      13.14783287      15.55652599
Au      11.59567162      15.33154684      18.16953435
Au      13.50372408      13.08334155      18.12753086
Au      13.47614239      15.30639528      15.56200491
