500
Lattice="13.09499652813453 0.0 0.0 0.0 17.375748757289248 0.0 0.0 0.0 17.13890909163854" Properties=species:S:1:pos:R:3 id=sample_000725 pbc="F F F"
Fe       0.01621522       0.00371894      -0.00829377
Fe      -0.00073883       1.75323224       1.69408498
Fe       1.31420265      -0.00679009       1.70984528
Fe       1.29772326       1.74163261      -0.00106512
Fe       0.01048826       0.00687829       3.42259510
Fe      -0.00361795       1.72970595       5.14153482
Fe       1.31127089       0.00146049       5.14115867
Fe       1.30866041       1.73319126       3.42382188
Fe       0.00773290       0.00829844       6.85123286
Fe       0.01939826       1.73481504       8.57775077
Fe       1.31745277       0.01111944       8.55980650
Fe       1.31155672       1.72224346       6.86239672
Fe       0.00340984      -0.00579095      10.28019787
Fe       0.00223258       1.74574916      11.96841823
Fe       1.33263751       0.00317148      12.00412297
Fe       1.31111235       1.74066308      10.27057108
Fe       0.01464882       0.00974575      13.69914953
Fe       0.00244789       1.73973885      15.41102083
Fe       1.31901306       0.00070335      15.42731277
Fe       1.30776322       1.74695823      13.71065405
Fe       0.00021582       3.46380416      -0.00560492
Fe      -0.00209758       5.20140498       1.69641972
Fe       1.29870920       3.48638307       1.68829755
Fe       1.30570336       5.19989754      -0.00946364
Fe      -0.00062285       3.47736527       3.41154166
Fe       0.00180474       5.20131002       5.15173185
Fe       1.30370722       3.49042117       5.13520429
Fe       1.30434148       5.21369383       3.42399850
Fe       0.01217957       3.46711549       6.86001026
Fe      -0.01098587       5.23800809       8.56261390
Fe       1.32369072       3.46630608       8.57632861
Fe       1.29136240       5.20572075       6.85574358
Fe       0.00062499       3.45640300      10.29997576
Fe       0.00114515       5.20936226      11.99380023
Fe       1.31360541       3.46574280      11.98180770
Fe       1.30034968       5.20205204      10.30715348
Fe      -0.00484158       3.46897230      13.70872479
Fe       0.00579438       5.22351318      15.42092743
Fe       1.30628481       3.48423704      15.41813015
Fe       1.32522639       5.21826486      13.70177873
Fe      -0.01429025       6.95502959      -0.00608262
Fe      -0.00454072       8.69412838       1.70401636
Fe       1.31573881       6.93511484       1.69677399
Fe       1.31101627       8.68177172      -0.00989511
Fe      -0.00011638       6.96474314       3.43415443
Fe      -0.01637420       8.67510274       5.13555669
Fe       1.31268667       6.92851320       5.13941336
Fe       1.32674927       8.70760341       3.43317502
Fe      -0.00847740       6.94133810       6.85208210
Fe       0.00461522       8.69309148       8.55568345
Fe       1.30226868       6.97059208       8.55762063
Fe       1.30159532       8.68727901       6.85003746
Fe       0.00587562       6.94394262      10.27688179
Fe      -0.00086506       8.67566996      11.97872625
Fe       1.30507700       6.94645173      11.98663145
Fe       1.33249920       8.69312334      10.28035515
Fe      -0.01757480       6.94239683      13.69330022
Fe      -0.01106001       8.68971295      15.42891210
Fe       1.29514118       6.93688178      15.42279313
Fe       1.31894817       8.69468712      13.70466585
Fe       0.00967809      10.42957448       0.00881574
Fe      -0.02495098      12.16272907       1.73139979
Fe       1.31154137      10.41615365       1.71076914
Fe       1.31682547      12.14833272       0.00102403
Fe       0.01220072      10.42655401       3.44213427
Fe       0.00787090      12.15947366       5.14839913
Fe       1.29750212      10.43552101       5.15156147
Fe       1.32275049      12.16885344       3.43830093
Fe      -0.01073294      10.42721707       6.84197224
Fe       0.00172432      12.16259155       8.56121878
Fe       1.31585086      10.41790256       8.57010488
Fe       1.30773472      12.17270192       6.84619747
Fe       0.00459586      10.44370212      10.30600223
Fe       0.00730912      12.16340562      11.99615468
Fe       1.31481915      10.42927519      12.01129984
Fe       1.31344965      12.17585457      10.28735378
Fe      -0.00700622      10.41068463      13.70606751
Fe      -0.01374218      12.17052271      15.43817792
Fe       1.29559669      10.44542025      15.42627423
Fe       1.30778625      12.15853033      13.71996773
Fe       0.01337030      13.90570146      -0.00699165
Fe      -0.00379645      15.65097436       1.71444476
Fe       1.28958019      13.88943940       1.71283253
Fe       1.29739335      15.65110897      -0.00600686
Fe      -0.00852155      13.89942584       3.41451171
Fe       0.01361425      15.62584345       5.14489986
Fe       1.30733595      13.89606864       5.13713876
Fe       1.31983467      15.63819969       3.42640097
Fe      -0.00141300      13.90654092       6.87673778
Fe       0.00965166      15.61763654       8.58412357
Fe       1.31261845      13.89654754       8.56043088
Fe       1.32346472      15.62791873       6.85725849
Fe       0.00275204      13.90446073      10.27125166
Fe      -0.00349624      15.65597016      11.99380081
Fe       1.30424897      13.89467433      11.99155196
Fe       1.31527541      15.64346977      10.28688685
Fe      -0.00282873      13.88973349      13.71590036
Fe       0.00010446      15.64215298      15.43137462
Fe       1.30279229      13.89270832      15.43519226
Fe       1.33707147      15.63502515      13.71315305
Fe       2.64149543      -0.01746287       0.00118498
Fe       2.62265406       1.74714427       1.71061303
Fe       3.93558336       0.00300314       1.71132124
Fe       3.93361369       1.75005361      -0.00160836
Fe       2.61813272       0.01470280       3.42918242
Fe       2.62022019       1.75084846       5.14468194
Fe       3.92866671      -0.00470671       5.14443805
Fe       3.92891903       1.73454941       3.43316755
Fe       2.60711522      -0.01014920       6.86349564
Fe       2.62441480       1.75011970       8.55775088
Fe       3.95471327      -0.00890658       8.58664702
Fe       3.92855433       1.73690273       6.85514969
Fe       2.62305519      -0.01387210      10.27008545
Fe       2.61946845       1.73413889      12.00730109
Fe       3.91515793      -0.00014690      12.00001999
Fe       3.92102934       1.72597214      10.28174327
Fe       2.62341512      -0.01099666      13.71010245
Fe       2.64403612       1.71138742      15.42422350
Fe       3.92738162      -0.00769435      15.43601882
Fe       3.91705006       1.73343218      13.70491652
Fe       2.61018429       3.47320662      -0.00120315
Fe       2.63786442       5.20318415       1.70834090
Fe       3.93583643       3.48692088       1.70177243
Fe       3.93133091       5.21257626      -0.01093033
Fe       2.62894614       3.49429357       3.43414902
Fe       2.61425932       5.20954794       5.14228042
Fe       3.94529553       3.46377793       5.12170253
Fe       3.92273424       5.20592680       3.40754674
Fe       2.62224680       3.46222647       6.86776041
Fe       2.62121770       5.22048317       8.56291800
Fe       3.91762355       3.47518021       8.58017925
Fe       3.93294352       5.20507085       6.83247216
Fe       2.61198748       3.46358375      10.28558173
Fe       2.62433311       5.22116031      12.01351253
Fe       3.93208718       3.48530481      11.99227713
Fe       3.92108136       5.20261237      10.28034581
Fe       2.62564860       3.47775803      13.71760898
Fe       2.62258486       5.20410704      15.41124167
Fe       3.92795169       3.47068101      15.42082449
Fe       3.90804411       5.20047561      13.72072247
Fe       2.62389582       6.94074245       0.01363752
Fe       2.61530418       8.71003181       1.70770966
Fe       3.89949294       6.96966395       1.73092837
Fe       3.91362576       8.69060794      -0.00955626
Fe       2.63568538       6.94947136       3.43254526
Fe       2.62172763       8.66867309       5.13859453
Fe       3.93477837       6.94099718       5.15167429
Fe       3.90988347       8.68609965       3.44133521
Fe       2.60498081       6.92976297       6.84850891
Fe       2.60808974       8.68821253       8.57054143
Fe       3.92382963       6.95213240       8.55485580
Fe       3.93611384       8.69330093       6.85954666
Fe       2.61838704       6.96962324      10.26276710
Fe       2.61152156       8.68955418      12.00318757
Fe       3.91836331       6.95080250      11.99684800
Fe       3.92775237       8.69419848      10.28147469
Fe       2.63954356       6.95926507      13.71360889
Fe       2.60862375       8.68742667      15.41695414
Fe       3.94054582       6.95534836      15.41163221
Fe       3.90910331       8.68570697      13.70856105
Fe       2.61689645      10.41428952      -0.00344048
Fe       2.61928650      12.15294124       1.71845232
Fe       3.93270279      10.41802830       1.72840262
Fe       3.91440793      12.17170900       0.00498348
Fe       2.62049192      10.42457745       3.40788952
Fe       2.62444277      12.15819034       5.15393304
Fe       3.91641362      10.42445702       5.14072655
Fe       3.92068158      12.17573624       3.43103768
Fe       2.61459356      10.42136873       6.85294426
Fe       2.60951302      12.14985442       8.57652262
Fe       3.93595470      10.43259614       8.57865358
Fe       3.93393261      12.15734455       6.83056742
Fe       2.62131940      10.42648101      10.28035078
Fe       2.61261194      12.14931374      11.99632978
Fe       3.91133558      10.41835990      11.99664292
Fe       3.92009560      12.16915509      10.29203822
Fe       2.64894478      10.42630240      13.69680892
Fe       2.61361008      12.15818202      15.43107847
Fe       3.93959024      10.41150929      15.42993839
Fe       3.91466839      12.16990445      13.72528232
Fe       2.61218272      13.89241576       0.00811895
Fe       2.61008577      15.62797533       1.70907985
Fe       3.93388849      13.88628092       1.69978628
Fe       3.92949239      15.63436419       0.00091269
Fe       2.61216859      13.88983329       3.41774149
Fe       2.61886919      15.62665540       5.11544922
Fe       3.93013432      13.88833185       5.16177268
Fe       3.95832515      15.62356509       3.43249337
Fe       2.61197481      13.89734037       6.84628953
Fe       2.61680896      15.63171269       8.55651642
Fe       3.91886731      13.90660847       8.56533144
Fe       3.92402798      15.66425488       6.86110709
Fe       2.63332471      13.89543906      10.27662621
Fe       2.61478496      15.62806846      11.98591860
Fe       3.93102438      13.89785904      11.99073817
Fe       3.93887239      15.62308255      10.28587359
Fe       2.61712894      13.92220666      13.69223266
Fe       2.62143861      15.64259232      15.42300759
Fe       3.93095472      13.88355665      15.43621938
Fe       3.94010917      15.63925990      13.72130599
Fe       5.24764735      -0.01947957      -0.00346031
Fe       5.24826322       1.72632720       1.70420449
Fe       6.54963094      -0.00076723       1.70415281
Fe       6.55349172       1.73916761       0.00060091
Fe       5.25476008      -0.00652235       3.40687112
Fe       5.24582308       1.74274268       5.14350721
Fe       6.55385984       0.00048718       5.14345312
Fe       6.56774237       1.73720866       3.43318396
Fe       5.24230094       0.00348581       6.85835119
Fe       5.23221257       1.75307783       8.58461349
Fe       6.54445592       0.00846102       8.58290629
Fe       6.55662516       1.74285126       6.85226164
Fe       5.23793165       0.00474377      10.27968873
Fe       5.23840709       1.74179338      11.99603748
Fe       6.52837292       0.00540103      12.00909819
Fe       6.55170627       1.73407309      10.27643026
Fe       5.23890276       0.01003436      13.71656140
Fe       5.23043198       1.75332601      15.42615190
Fe       6.54543244      -0.00072769      15.41996640
Fe       6.52973925       1.73630756      13.70948033
Fe       5.25662169       3.46980744       0.00010199
Fe       5.25127854       5.22052114       1.70520301
Fe       6.54358268       3.47114764       1.72941966
Fe       6.53821622       5.22882588       0.00593711
Fe       5.25839950       3.48459852       3.42672534
Fe       5.22442805       5.21026841       5.13742688
Fe       6.54028824       3.49322001       5.13331655
Fe       6.56339776       5.22414362       3.42076943
Fe       5.26571729       3.49512586       6.87814706
Fe       5.23289529       5.19382037       8.57011048
Fe       6.56698786       3.46841301       8.55876262
Fe       6.55139381       5.22126331       6.84829519
Fe       5.24724065       3.47839447      10.27275603
Fe       5.21972663       5.21072713      12.00332118
Fe       6.54850920       3.48730102      11.99010047
Fe       6.55518238       5.21213979      10.27774682
Fe       5.24378421       3.47818842      13.71103621
Fe       5.22013146       5.22260255      15.41596052
Fe       6.54324815       3.47828742      15.43109037
Fe       6.53603548       5.20134845      13.71095151
Fe       5.23150061       6.93674899      -0.00850948
Fe       5.25116934       8.69255388       1.70046620
Fe       6.53788023       6.94262286       1.72051154
Fe       6.54142537       8.68467764      -0.00300962
Fe       5.25039153       6.94551858       3.43608098
Fe       5.24759216       8.68587500       5.13980564
Fe       6.54812573       6.94481373       5.13398712
Fe       6.55244271       8.68442316       3.42745742
Fe       5.25101312       6.95530784       6.85577265
Fe       5.21843065       8.68593967       8.57691167
Fe       6.55659848       6.95516389       8.57057801
Fe       6.52820107       8.69394180       6.85981083
Fe       5.25340182       6.95263332      10.27667567
Fe       5.21848091       8.68110015      11.99998873
Fe       6.55602893       6.93432497      11.98986292
Fe       6.54031196       8.68528648      10.28468974
Fe       5.23647093       6.94827927      13.71626484
Fe       5.23682482       8.71077909      15.42504572
Fe       6.54480372       6.95499839      15.41654040
Fe       6.55108042       8.68350619      13.70399148
Fe       5.24272548      10.43329196       0.00447574
Fe       5.23599797      12.17017920       1.73717093
Fe       6.55545516      10.43480651       1.71810330
Fe       6.55612049      12.15838782       0.00641164
Fe       5.23217520      10.43102431       3.42484030
Fe       5.23935314      12.15404301       5.15449415
Fe       6.54059911      10.43197964       5.14547233
Fe       6.53511784      12.16240933       3.42499747
Fe       5.23278633      10.44587769       6.86640952
Fe       5.24784404      12.17010338       8.58029512
Fe       6.57154892      10.42202363       8.55849136
Fe       6.55091731      12.15635029       6.83138925
Fe       5.23654088      10.43344411      10.29375159
Fe       5.23170244      12.16768086      11.99544482
Fe       6.54924425      10.42352506      12.00163823
Fe       6.55480406      12.15443115      10.28214223
Fe       5.22242219      10.41874745      13.72353507
Fe       5.23172341      12.18259153      15.43343502
Fe       6.53689710      10.43425457      15.40419272
Fe       6.52643095      12.16408242      13.69520903
Fe       5.24072161      13.89376767      -0.01977641
Fe       5.23302686      15.65118192       1.72696483
Fe       6.56284779      13.89118668       1.70341679
Fe       6.55711047      15.63782634       0.00471926
Fe       5.23777741      13.89091288       3.43288416
Fe       5.25657135      15.64382143       5.14550290
Fe       6.53565558      13.90687354       5.14270271
Fe       6.53689337      15.63868211       3.42269600
Fe       5.25211002      13.89779712       6.86514575
Fe       5.22709612      15.64673750       8.56590332
Fe       6.53673649      13.90068081       8.57651162
Fe       6.53980220      15.63482189       6.85665697
Fe       5.25195048      13.88582908      10.25775001
Fe       5.22179155      15.63726510      11.99115718
Fe       6.53163340      13.89470047      11.98332403
Fe       6.53132820      15.62509864      10.28555030
Fe       5.24025518      13.91435238      13.71173585
Fe       5.23872739      15.62936145      15.40647207
Fe       6.55093999      13.90429357      15.42090341
Fe       6.55384251      15.63139555      13.73022773
Fe       7.85585073      -0.00010503      -0.02197569
Fe       7.84649502       1.75206739       1.71138867
Fe       9.14919873      -0.00244451       1.70607216
Fe       9.16554921       1.75075395      -0.00861826
Fe       7.84069930      -0.00851699       3.42622637
Fe       7.85258631       1.73585685       5.15856965
Fe       9.18577258       0.00641913       5.12733048
Fe       9.16799756       1.74123736       3.43319710
Fe       7.86770765      -0.00476561       6.85840418
Fe       7.84606302       1.74208020       8.57183483
Fe       9.16919395      -0.01402172       8.55392358
Fe       9.16827844       1.74622361       6.86264358
Fe       7.86613611       0.01326558      10.28344224
Fe       7.85883102       1.73730245      11.98805625
Fe       9.16423930       0.01989321      12.01492402
Fe       9.17229702       1.74647663      10.30094311
Fe       7.84782676       0.00220483      13.71861847
Fe       7.87036385       1.74416630      15.44192472
Fe       9.17803594       0.01172976      15.42009253
Fe       9.17164489       1.72698817      13.70407801
Fe       7.86924729       3.46261300       0.01690248
Fe       7.85652536       5.21184186       1.71562449
Fe       9.17563829       3.46643572       1.70671693
Fe       9.15328297       5.22159199       0.01575149
Fe       7.84945489       3.47134036       3.42230522
Fe       7.85601068       5.20890509       5.12621667
Fe       9.15932405       3.49033016       5.15109868
Fe       9.15015241       5.20290363       3.42076141
Fe       7.86945364       3.47601482       6.85737111
Fe       7.87200797       5.21903281       8.58041845
Fe       9.17837935       3.46718482       8.57313298
Fe       9.16972436       5.21316395       6.85491186
Fe       7.86850651       3.47474430      10.29203859
Fe       7.85597508       5.20675846      12.01289923
Fe       9.16282771       3.49724715      12.01078659
Fe       9.15502090       5.22523794      10.29389833
Fe       7.87323736       3.49009283      13.70629023
Fe       7.87798396       5.21632845      15.45162643
Fe       9.18440259       3.46965368      15.41872870
Fe       9.14806720       5.20496929      13.72272061
Fe       7.83965598       6.94595311      -0.00286112
Fe       7.86059300       8.70015569       1.72197281
Fe       9.14761347       6.95966919       1.71244345
Fe       9.16977450       8.68941339       0.02098469
Fe       7.84949271       6.93954866       3.42810721
Fe       7.84813641       8.67974343       5.13711361
Fe       9.17462018       6.94524437       5.15685723
Fe       9.15918206       8.69545364       3.43277508
Fe       7.85095692       6.95074391       6.85222835
Fe       7.85400121       8.69829406       8.57661692
Fe       9.18229012       6.95365132       8.55497305
Fe       9.16306193       8.70032555       6.85769080
Fe       7.86722692       6.94146735      10.28373537
Fe       7.85699353       8.69258598      11.99845042
Fe       9.17330581       6.95057980      12.01265414
Fe       9.16742301       8.68342056      10.27848333
Fe       7.86578703       6.95279486      13.71135972
Fe       7.84605191       8.69501720      15.40953073
Fe       9.16643626       6.94967993      15.43930405
Fe       9.16188156       8.69787397      13.71288352
Fe       7.85728531      10.43686302       0.00416760
Fe       7.84099966      12.16330411       1.72316870
Fe       9.17891044      10.41529224       1.72062166
Fe       9.17514320      12.16181063      -0.01730275
Fe       7.86928390      10.44555841       3.43023648
Fe       7.84415120      12.17293902       5.12931874
Fe       9.17871470      10.42068744       5.15348788
Fe       9.16245708      12.16358135       3.44507909
Fe       7.83404099      10.44432703       6.86387691
Fe       7.85255706      12.15822427       8.56234802
Fe       9.16829904      10.39730636       8.57477287
Fe       9.16202593      12.16218601       6.85312748
Fe       7.85344165      10.42329148      10.29492796
Fe       7.84163579      12.16344159      11.99446567
Fe       9.16636538      10.43404797      11.99133265
Fe       9.15404686      12.17562154      10.28658568
Fe       7.86913456      10.43416080      13.70455183
Fe       7.85794999      12.15270864      15.43488196
Fe       9.17411287      10.41754205      15.42349687
Fe       9.17199811      12.17008913      13.71997696
Fe       7.85715512      13.89213688       0.01774722
Fe       7.85188279      15.63968132       1.72297311
Fe       9.17551541      13.90601522       1.71878680
Fe       9.18365492      15.65425428       0.00202651
Fe       7.85241683      13.90466824       3.42064597
Fe       7.86327804      15.64379241       5.14429364
Fe       9.17083609      13.91516712       5.12568825
Fe       9.16235301      15.65262905       3.42559821
Fe       7.87467291      13.90148112       6.84453975
Fe       7.85976098      15.64557445       8.56106459
Fe       9.16011836      13.89621693       8.57189791
Fe       9.16283960      15.65190864       6.86790513
Fe       7.84148410      13.90004323      10.28782347
Fe       7.85545675      15.63373157      11.99587057
Fe       9.17258782      13.91355898      11.98696623
Fe       9.15970350      15.63701643      10.28799611
Fe       7.84853922      13.88347724      13.72701350
Fe       7.85716866      15.65153134      15.44195831
Fe       9.15853662      13.89436877      15.44513594
Fe       9.18430726      15.63816299      13.70079652
Fe      10.46230057      -0.00384603       0.00862471
Fe      10.47516319       1.75748342       1.71900495
Fe      11.78371300      -0.00207675       1.70078316
Fe      11.78626023       1.72947524      -0.00510732
Fe      10.48416122       0.01040477       3.43972152
Fe      10.49237641       1.74833705       5.13683688
Fe      11.79267781      -0.01335503       5.14968319
Fe      11.78843380       1.74654685       3.40862083
Fe      10.49544391       0.01097978       6.84302626
Fe      10.47690419       1.74323285       8.55541900
Fe      11.78502086       0.01902850       8.56777659
Fe      11.79229854       1.74506403       6.85129777
Fe      10.48417699       0.00285541      10.27662345
Fe      10.47659720       1.73532669      12.00411266
Fe      11.78406668       0.00102549      11.99813928
Fe      11.79048623       1.73990135      10.28112553
Fe      10.47255023      -0.00895959      13.71491131
Fe      10.46830199       1.73383025      15.41198013
Fe      11.78316697      -0.00056621      15.42521348
Fe      11.78701531       1.72843108      13.71341737
Fe      10.48091324       3.46318890      -0.01038650
Fe      10.47956829       5.22362700       1.71833666
Fe      11.77448113       3.47953886       1.72310444
Fe      11.78490705       5.19985731      -0.00326373
Fe      10.46563120       3.48094871       3.42210406
Fe      10.47952042       5.21260407       5.15086811
Fe      11.77806547       3.44794794       5.14861314
Fe      11.79444774       5.22464622       3.41963062
Fe      10.48017040       3.48061627       6.86297938
Fe      10.47530659       5.20651861       8.54724642
Fe      11.78621660       3.48477696       8.56765756
Fe      11.80676107       5.19966980       6.85776716
Fe      10.46321835       3.46126056      10.27144414
Fe      10.48051775       5.21383114      12.00764559
Fe      11.78996603       3.47848479      11.98811972
Fe      11.78597626       5.22495987      10.29190463
Fe      10.46440941       3.48146436      13.72225456
Fe      10.47361348       5.21349722      15.43422521
Fe      11.78851842       3.46677347      15.42102874
Fe      11.77500254       5.20261803      13.69593367
Fe      10.45406032       6.94383820       0.01198538
Fe      10.46425327       8.68860447       1.72165033
Fe      11.79762546       6.95371550       1.72147029
Fe      11.77989970       8.69259559      -0.00988869
Fe      10.47917939       6.95523881       3.43506676
Fe      10.48589577       8.67406537       5.14204820
Fe      11.77813545       6.94452820       5.13585424
Fe      11.77442037       8.70091409       3.43424517
Fe      10.46713172       6.95652741       6.85503123
Fe      10.45912129       8.67054154       8.57907227
Fe      11.79757842       6.95460580       8.56705100
Fe      11.79446160       8.69144960       6.84975674
Fe      10.47757997       6.96568452      10.28217135
Fe      10.46212883       8.67579571      11.99854527
Fe      11.77855282       6.95645483      12.01159426
Fe      11.78194801       8.67298727      10.29160288
Fe      10.48426561       6.96461348      13.71239483
Fe      10.47771064       8.68929541      15.42043955
Fe      11.77961674       6.96568404      15.43258466
Fe      11.80141634       8.69193615      13.70140254
Fe      10.47039769      10.44028048       0.00317563
Fe      10.47312165      12.16215659       1.70094835
Fe      11.79867830      10.43181852       1.73158040
Fe      11.80838113      12.16215203      -0.00249829
Fe      10.45795674      10.42234350       3.43096040
Fe      10.48954414      12.16990881       5.16103646
Fe      11.78662967      10.44992832       5.14407627
Fe      11.80011315      12.18279705       3.41559549
Fe      10.46940854      10.43166523       6.85596068
Fe      10.47774935      12.15803166       8.57800020
Fe      11.78349935      10.43749214       8.56600378
Fe      11.78147342      12.16622297       6.85515484
Fe      10.48043100      10.41321776      10.28023010
Fe      10.47683259      12.17188979      12.00424129
Fe      11.77119976      10.43232033      11.97880783
Fe      11.77296295      12.15838354      10.26539213
Fe      10.47836880      10.42765261      13.70349699
Fe      10.48506017      12.14611225      15.42285083
Fe      11.79778767      10.41552209      15.45029177
Fe      11.78960153      12.16642682      13.70414915
Fe      10.48363632      13.89091035       0.01049319
Fe      10.47148574      15.65309009       1.72485300
Fe      11.79412606      13.90716636       1.71478237
Fe      11.79385963      15.63853822      -0.00176154
Fe      10.47492335      13.88988253       3.43711099
Fe      10.47806691      15.63205442       5.13191725
Fe      11.77561681      13.88893172       5.12425868
Fe      11.78464718      15.63061798       3.42335049
Fe      10.47640248      13.90419347       6.83379515
Fe      10.48904814      15.63118411       8.57289204
Fe      11.77576878      13.89688046       8.56387851
Fe      11.77907840      15.65469284       6.84246768
Fe      10.48300223      13.89458071      10.28427742
Fe      10.47736078      15.65170320      11.99494127
Fe      11.77635119      13.90093423      11.99731094
Fe      11.78980422      15.61975472      10.29674477
Fe      10.46838210      13.91162490      13.69021319
Fe      10.48964435      15.63307996      15.41479295
Fe      11.78356299      13.89324670      15.41427340
Fe      11.77237538      15.62846743      13.71685457
