660
Lattice="80.65942707067323 0.0 0.0 0.0 80.65942707067323 0.0 0.0 0.0 80.65942707067323" Properties=species:S:1:pos:R:3 id=sample_001541 pbc="T T T"
Si      25.20171641      25.22004174      25.19727000
Si      26.59065162      26.57041828      26.56947519
Si      27.94988978      27.91801994      25.21889115
Si      29.28917338      29.29273076      26.55938153
Si      30.64138082      30.65493980      25.21168948
Si      32.00987942      32.00627319      26.57663405
Si      33.35621347      33.37227627      25.23128111
Si      34.72973115      34.73102648      26.56558455
Si      36.05688534      36.08397540      25.19969071
Si      37.43164925      37.42918490      26.55738680
Si      38.81001355      38.78164780      25.23130490
Si      40.14859199      40.15060035      26.58118685
Si      41.50770396      41.48903084      25.22537775
Si      42.85705571      42.85063860      26.56605943
Si      44.21665398      44.21795306      25.21392055
Si      45.56393384      45.58487661      26.58954922
Si      46.95190649      46.95648795      25.21906186
Si      48.29261464      48.30191431      26.54349881
Si      49.65201018      49.66359721      25.20649872
Si      50.99810556      51.00160025      26.55672529
Si      27.92746975      25.21021627      27.92718403
Si      29.29978265      26.57737002      29.30054528
Si      30.62627276      27.91238507      27.92339844
Si      32.00870837      29.27470946      29.27643376
Si      33.35142709      30.65136957      27.93816882
Si      34.72062797      32.00297464      29.28438221
Si      36.06442608      33.34180652      27.92673804
Si      37.42468205      34.71269400      29.29704272
Si      38.77885468      36.08855235      27.94239088
Si      40.16365683      37.41808281      29.27546980
Si      41.51274828      38.78080165      27.93987627
Si      42.86622931      40.15635255      29.28157755
Si      44.21405918      41.50681268      27.92607244
Si      45.58041193      42.85853989      29.29302693
Si      46.93174410      44.20234802      27.91503850
Si      48.29595781      45.58361413      29.29690683
Si      49.66293103      46.92639216      27.92982924
Si      51.02951659      48.29306039      29.29283561
Si      52.37283218      49.64536924      27.93913483
Si      30.65698560      25.20422302      30.64014893
Si      32.01840995      26.56415423      32.00146340
Si      33.35912425      27.92643808      30.63702617
Si      34.72242548      29.28847305      32.01302494
Si      36.08362915      30.66145286      30.66357557
Si      37.42529081      32.00526875      32.00922708
Si      38.79083075      33.35269186      30.63990294
Si      40.15162027      34.71956222      32.01201631
Si      41.51008349      36.07153672      30.62691086
Si      42.85793943      37.43896593      32.00826348
Si      44.21854181      38.78027925      30.64449044
Si      45.58787538      40.13906880      31.99661244
Si      46.93266396      41.50687329      30.64419371
Si      48.29066632      42.86440298      31.99240155
Si      49.64854417      44.23738525      30.64516660
Si      51.00072121      45.57771930      32.00136567
Si      52.34551510      46.92387926      30.63899132
Si      53.73063863      48.29408123      32.00808607
Si      33.35088341      25.21259259      33.35982028
Si      34.72090320      26.56318126      34.71607898
Si      36.05673459      27.94197393      33.37151966
Si      37.43228686      29.27489856      34.73494848
Si      38.78985663      30.62296284      33.36400511
Si      40.12706222      32.00636002      34.72668284
Si      41.50295718      33.35025598      33.36240860
Si      42.86979434      34.72822262      34.73383037
Si      44.22496082      36.05490092      33.36060214
Si      45.57000761      37.43599386      34.70354820
Si      46.95291377      38.79656601      33.33701709
Si      48.28281124      40.15469210      34.71564914
Si      49.65643408      41.50925618      33.36107843
Si      51.01092737      42.86980219      34.73152291
Si      52.37663792      44.22813054      33.34969268
Si      53.73448235      45.59698550      34.72066876
Si      55.08335594      46.92775005      33.35079685
Si      36.07965661      25.22878747      36.08310359
Si      37.43263387      26.56166893      37.44600077
Si      38.81227389      27.93612359      36.05761704
Si      40.13112594      29.29509347      37.42992324
Si      41.51346679      30.64507712      36.08210748
Si      42.87353550      31.99932760      37.44202300
Si      44.23894559      33.34868343      36.08995187
Si      45.58013231      34.71437144      37.43455234
Si      46.92644568      36.06223358      36.06840379
Si      48.31279036      37.43201174      37.42663002
Si      49.66072366      38.78123918      36.09971129
Si      51.01651401      40.16346571      37.43371418
Si      52.34825049      41.50848074      36.07998237
Si      53.71501198      42.86394785      37.43112308
Si      55.07126063      44.22007160      36.06717652
Si      38.80158113      25.20338748      38.79333457
Si      40.13801437      26.57988103      40.17652398
Si      41.49399985      27.91177836      38.76537038
Si      42.85413689      29.26815453      40.13353173
Si      44.23065551      30.66175959      38.78384009
Si      45.57430001      31.98962384      40.15024910
Si      46.95623308      33.38458455      38.79223632
Si      48.28980500      34.70870296      40.13648852
Si      49.67417483      36.06800807      38.81045436
Si      51.00977135      37.42976537      40.14999129
Si      52.36076401      38.77966230      38.78190180
Si      53.73715169      40.16689555      40.13820354
Si      55.08445111      41.49326018      38.78830958
Si      41.49856518      25.20651768      41.50244004
Si      42.85044167      26.55736484      42.85861689
Si      44.22031489      27.91327906      41.50245161
Si      45.58430709      29.26890751      42.85671257
Si      46.95392015      30.65456721      41.50659589
Si      48.29801531      32.00707197      42.86636691
Si      49.68712795      33.36148568      41.50158697
Si      51.02137886      34.72862712      42.85852280
Si      52.35237711      36.07239689      41.49489910
Si      53.73247896      37.43199795      42.85216469
Si      55.09190477      38.80326378      41.51849390
Si      44.21766393      25.22146056      44.22393545
Si      45.56349876      26.58358951      45.58893056
Si      46.93479449      27.92194908      44.22490947
Si      48.28684172      29.27375628      45.59375192
Si      49.66946126      30.64949146      44.20922960
Si      51.02537720      32.01123357      45.57041856
Si      52.36369005      33.35241521      44.22674173
Si      53.70974562      34.71926718      45.57591214
Si      55.08760594      36.07948857      44.22135982
Si      46.90944769      25.22327524      46.94544803
Si      48.30597287      26.55021687      48.29753779
Si      49.65429438      27.93287018      46.94857945
Si      51.01798633      29.28151848      48.29915316
Si      52.37859554      30.65417091      46.94300039
Si      53.72377075      32.00174805      48.31035660
Si      55.08146893      33.36352561      46.94434824
Si      49.65513354      25.21189881      49.65490001
Si      51.00803076      26.58995203      50.98950774
Si      52.36863554      27.92883449      49.64597038
Si      25.21606487      27.92034135      27.95216334
Si      26.56976660      29.26822172      29.28750097
Si      27.92829280      30.62898284      27.92558766
Si      29.29274995      31.99172526      29.28043991
Si      30.65735924      33.36147955      27.93027351
Si      32.01150214      34.72584541      29.28273229
Si      33.35122073      36.09428757      27.93445170
Si      34.71555231      37.43711179      29.28446708
Si      36.05570356      38.78003827      27.92888314
Si      37.43462137      40.13742870      29.28048106
Si      38.80703917      41.48527479      27.92073256
Si      40.13512448      42.87425122      29.27588147
Si      41.48934971      44.22642739      27.93551284
Si      42.86025029      45.57590514      29.28775613
Si      44.22965003      46.94316660      27.94367420
Si      45.57911712      48.29863517      29.29542781
Si      46.92940501      49.67264344      27.93616388
Si      48.30059328      51.00987092      29.28716488
Si      49.65784498      52.37013590      27.90884170
Si      27.93025970      27.92342086      30.65043113
Si      29.28286057      29.29795716      31.99437992
Si      30.64249879      30.64202554      30.64811079
Si      32.00846203      32.00043634      32.01105941
Si      33.37135777      33.36165065      30.63552386
Si      34.73003577      34.72166834      31.98935963
Si      36.07074202      36.08441947      30.64536655
Si      37.42403370      37.42653281      31.99124186
Si      38.79657679      38.78255418      30.64698273
Si      40.15035246      40.15039417      32.01290774
Si      41.50056290      41.50936169      30.62254879
Si      42.85378323      42.85829296      31.99573778
Si      44.22472856      44.23036863      30.63811607
Si      45.57757564      45.58785939      32.00199528
Si      46.93311295      46.93387713      30.63639357
Si      48.29655232      48.30836937      31.99557737
Si      49.65378112      49.65246128      30.64684438
Si      51.01434952      51.02116872      32.00270043
Si      30.63613874      27.90865748      33.35291780
Si      32.00480227      29.27237783      34.72309611
Si      33.35263875      30.64270539      33.35449767
Si      34.68981831      32.01999693      34.72719269
Si      36.09180001      33.34045203      33.34568427
Si      37.41409183      34.72851603      34.73310121
Si      38.78727321      36.06876794      33.39840976
Si      40.15155882      37.43220591      34.71777888
Si      41.50893862      38.78907359      33.34189802
Si      42.85246059      40.13235471      34.71639878
Si      44.22076503      41.49993436      33.34286370
Si      45.56985884      42.88198209      34.70138220
Si      46.93992219      44.21271268      33.36274795
Si      48.29060965      45.57184868      34.71996020
Si      49.63175977      46.94101523      33.35549209
Si      51.00411612      48.31123693      34.71322938
Si      52.37516546      49.65265953      33.34123992
Si      33.35076319      27.93066238      36.06644081
Si      34.72251121      29.28307292      37.43329092
Si      36.07244693      30.65480044      36.08382603
Si      37.43900911      32.01474754      37.42242226
Si      38.78545301      33.35410844      36.06285775
Si      40.15309481      34.71409559      37.43175722
Si      41.51579338      36.06741262      36.06352060
Si      42.86341806      37.43389789      37.41995089
Si      44.22692463      38.78503363      36.08079772
Si      45.57109004      40.17174541      37.43411407
Si      46.94903290      41.51623367      36.08099975
Si      48.30404246      42.85599874      37.44211476
Si      49.67565081      44.21125658      36.09174310
Si      51.00444031      45.58406290      37.41256251
Si      52.36529489      46.92982189      36.09128086
Si      36.07099367      27.92724701      38.78469216
Si      37.43792189      29.28522107      40.13477490
Si      38.78883634      30.65147961      38.79330460
Si      40.13770302      32.02044150      40.13803339
Si      41.50857861      33.34350378      38.78677166
Si      42.86300463      34.72264916      40.15101225
Si      44.22380621      36.08358347      38.78504992
Si      45.55917709      37.43129047      40.14496229
Si      46.93550870      38.78035879      38.78063295
Si      48.29442475      40.15222254      40.13411672
Si      49.66249331      41.50986588      38.78495242
Si      51.00692600      42.87473624      40.14557773
Si      52.37257108      44.22664498      38.78973945
Si      53.73331774      45.58144351      40.13526131
Si      38.79675617      27.92605204      41.51725429
Si      40.15238467      29.28299024      42.86546824
Si      41.50583121      30.64463575      41.49483481
Si      42.86512607      31.99519365      42.86150503
Si      44.22765703      33.35436225      41.49695908
Si      45.57108534      34.72458410      42.85501283
Si      46.94448588      36.06466846      41.52625354
Si      48.29238878      37.43649301      42.87456918
Si      49.65024619      38.78043440      41.51665461
Si      51.01977339      40.15158823      42.85967869
Si      52.35165438      41.50062154      41.51983829
Si      53.71211805      42.87903787      42.87245831
Si      41.50939240      27.90673520      44.22708297
Si      42.85058828      29.28572046      45.58313371
Si      44.21916085      30.64033571      44.23335736
Si      45.58325711      32.00493956      45.57975902
Si      46.93257090      33.36069353      44.21253545
Si      48.30731486      34.72254808      45.58239561
Si      49.65600724      36.06961828      44.21895194
Si      51.00923684      37.43510082      45.55734661
Si      52.38108890      38.80255416      44.22957071
Si      53.71426880      40.15328615      45.57481105
Si      44.23218267      27.93318994      46.94879079
Si      45.54849206      29.28499567      48.28994389
Si      46.93651702      30.65306956      46.93761946
Si      48.28397399      32.00324520      48.28806882
Si      49.64630554      33.36572916      46.93754789
Si      51.00583576      34.72171750      48.28847069
Si      52.37112857      36.07934675      46.94417712
Si      46.92983028      27.92576706      49.66039364
Si      48.30970715      29.30042372      51.01002163
Si      49.62672780      30.65276317      49.65460284
Si      50.99376732      32.02221583      51.00127043
Si      52.37885223      33.34351504      49.65367211
Si      49.65287514      27.94508139      52.37082768
Si      25.20981052      30.65567977      30.64574658
Si      26.56437869      31.99420002      32.00708504
Si      27.92100182      33.34640574      30.64195148
Si      29.28900918      34.71395110      32.00637333
Si      30.64947341      36.08349561      30.64726263
Si      32.00612047      37.44152516      31.99154101
Si      33.37271328      38.78840237      30.64093789
Si      34.72148149      40.13555739      32.01512493
Si      36.08252830      41.50650272      30.63395429
Si      37.43581375      42.85173249      32.01188017
Si      38.79030921      44.23746534      30.64737769
Si      40.15328076      45.56756353      31.99509468
Si      41.51505848      46.93145545      30.64200289
Si      42.87410845      48.31156342      32.00781759
Si      44.21880378      49.67463639      30.64467257
Si      45.58583140      51.02392262      32.00836116
Si      46.93062941      52.36106169      30.63707129
Si      48.28313920      53.70577696      32.01236131
Si      27.92144209      30.63659144      33.34369457
Si      29.28144681      32.00248522      34.72561125
Si      30.63157091      33.34852577      33.36130285
Si      31.99297578      34.72053933      34.73527447
Si      33.36852575      36.09036997      33.35251773
Si      34.70947348      37.43158879      34.72769953
Si      36.06645090      38.78808305      33.36519902
Si      37.42102058      40.14691674      34.71462201
Si      38.80334864      41.50742438      33.36405180
Si      40.16045818      42.86219782      34.74200484
Si      41.50767704      44.22110148      33.37912233
Si      42.87027252      45.58396465      34.72676461
Si      44.21859619      46.93837888      33.37453683
Si      45.58254777      48.28625342      34.71713937
Si      46.95313080      49.66327786      33.36237415
Si      48.29271082      51.01589893      34.71495078
Si      49.65248810      52.35997621      33.36829840
Si      30.65821957      30.66387703      36.06721093
Si      32.00058146      32.01046175      37.42752297
Si      33.35245224      33.35752043      36.08056345
Si      34.71978460      34.71207452      37.42402672
Si      36.09533753      36.07504215      36.07189327
Si      37.44607432      37.43612064      37.43026109
Si      38.79092014      38.79552251      36.09928712
Si      40.14843101      40.15829765      37.42985052
Si      41.49953362      41.50639225      36.05653025
Si      42.86223390      42.88107586      37.42235608
Si      44.22636214      44.20694444      36.06778154
Si      45.56994213      45.59820331      37.43656909
Si      46.95102366      46.94293645      36.07177103
Si      48.30365865      48.29837981      37.42745769
Si      49.63516394      49.65409814      36.08657785
Si      33.36384900      30.64142201      38.80557752
Si      34.70895111      32.01233275      40.13260820
Si      36.09208733      33.35282763      38.79919176
Si      37.42732772      34.71077518      40.15491961
Si      38.80422753      36.07362767      38.80054760
Si      40.14177608      37.43936565      40.14009877
Si      41.51083369      38.78450231      38.79424707
Si      42.85770588      40.14775605      40.13835421
Si      44.21161037      41.49917066      38.80011402
Si      45.57450124      42.88002543      40.14816653
Si      46.92416126      44.20886744      38.78965036
Si      48.28964086      45.58460246      40.14557861
Si      49.67804488      46.94542583      38.78750695
Si      51.01194332      48.29730581      40.15150264
Si      36.08162687      30.65296821      41.50457766
Si      37.41353729      31.99177141      42.87080807
Si      38.79122856      33.36457370      41.50528762
Si      40.15715017      34.71904970      42.86107001
Si      41.52119844      36.08614595      41.51937999
Si      42.86554031      37.42202736      42.84636180
Si      44.21551400      38.78667342      41.51529543
Si      45.57900749      40.13435453      42.86412235
Si      46.91572525      41.50912645      41.50716834
Si      48.30856992      42.86324327      42.88255998
Si      49.64630149      44.22375764      41.52940114
Si      51.02104710      45.58332942      42.87548614
Si      38.78626923      30.63996218      44.21092430
Si      40.15256681      31.98993583      45.57779086
Si      41.51127728      33.33729163      44.21208098
Si      42.87072505      34.71975035      45.57386494
Si      44.24004587      36.08007603      44.22682201
Si      45.57731227      37.44591729      45.58503641
Si      46.93744109      38.78644035      44.20301744
Si      48.28191868      40.13956875      45.55673235
Si      49.64585286      41.48945581      44.21308462
Si      51.02844441      42.85216103      45.58895181
Si      52.38371350      44.23933216      44.21383641
Si      41.48655098      30.64209240      46.95210335
Si      42.85494066      31.99913486      48.29303045
Si      44.23336674      33.34672100      46.94890434
Si      45.59611708      34.72351003      48.28957002
Si      46.93175100      36.06130845      46.93516532
Si      48.29983290      37.43102314      48.28925055
Si      49.65106180      38.77935745      46.95505090
Si      51.00740947      40.14249671      48.30234807
Si      44.20774945      30.64034085      49.64271331
Si      45.59377021      32.02122885      51.00243656
Si      46.93598141      33.34595615      49.65361676
Si      48.28917760      34.71248621      51.00940324
Si      49.65266819      36.07486171      49.63947252
Si      46.93901560      30.64646563      52.37212443
Si      48.30538415      32.01025188      53.74533368
Si      49.65283832      33.35932250      52.35438455
Si      25.20549580      33.36172845      33.34242433
Si      26.57743952      34.70365399      34.71494054
Si      27.91515508      36.08705486      33.36230827
Si      29.30210680      37.44440445      34.71667040
Si      30.65235191      38.78308609      33.36296695
Si      32.00965718      40.14960892      34.72098694
Si      33.36860054      41.50330415      33.34991172
Si      34.70853405      42.87014069      34.71841996
Si      36.07824132      44.20099399      33.36606361
Si      37.43791622      45.58288224      34.70011515
Si      38.79587155      46.94471830      33.34794740
Si      40.14113262      48.29662190      34.70868863
Si      41.50013336      49.67023608      33.34085386
Si      42.88241756      51.02034269      34.72917367
Si      44.20569135      52.36584477      33.36219933
Si      45.57258846      53.71952665      34.71834054
Si      46.93236032      55.06757131      33.35499196
Si      27.93208880      33.35147168      36.05996651
Si      29.28066932      34.70851125      37.42901879
Si      30.65873512      36.07083871      36.06735877
Si      32.00113846      37.43762133      37.42037878
Si      33.37063971      38.77673139      36.06922161
Si      34.70419571      40.14433031      37.41893643
Si      36.05672569      41.49827278      36.07906982
Si      37.44218944      42.86889985      37.44077564
Si      38.79258555      44.22135274      36.05961304
Si      40.13371170      45.58939104      37.42286530
Si      41.49262389      46.93711795      36.05144143
Si      42.86271818      48.30091352      37.41360389
Si      44.22646649      49.65592034      36.06044150
Si      45.58428462      51.01040365      37.42277681
Si      46.94413679      52.36070430      36.08321675
Si      30.64101587      33.35559067      38.80031343
Si      32.01431687      34.73117667      40.16020238
Si      33.35862320      36.05602242      38.79007091
Si      34.72076876      37.42460106      40.14577124
Si      36.05753074      38.77431024      38.78808207
Si      37.42393760      40.15278144      40.14331227
Si      38.79508725      41.49650991      38.77134063
Si      40.15374918      42.85518441      40.15248309
Si      41.50841921      44.24145990      38.77765294
Si      42.85231299      45.57334164      40.14080618
Si      44.22562520      46.95479864      38.77105383
Si      45.59078690      48.29407314      40.15482651
Si      46.94675434      49.65358119      38.78923060
Si      48.29136527      51.00457552      40.14204245
Si      33.36135605      33.35500111      41.51563021
Si      34.70231924      34.71624271      42.85641518
Si      36.06351789      36.06999367      41.52253220
Si      37.45311160      37.46644019      42.86736076
Si      38.80532119      38.80075548      41.49649547
Si      40.17825763      40.16416661      42.86302224
Si      41.49545448      41.50986624      41.52219753
Si      42.86150785      42.86965192      42.87044634
Si      44.22308110      44.22357388      41.47724976
Si      45.58502214      45.60250572      42.85602202
Si      46.94912246      46.91630674      41.50030923
Si      48.31112154      48.29857983      42.85878941
Si      49.67201768      49.65618965      41.50738488
Si      36.07650338      33.36107734      44.23340467
Si      37.41607200      34.71207886      45.60027083
Si      38.80584717      36.07191714      44.23053528
Si      40.13674839      37.42835819      45.57897151
Si      41.48917513      38.78486151      44.21879196
Si      42.86317825      40.16183446      45.55955610
Si      44.21224235      41.49316398      44.23873569
Si      45.57356640      42.86076488      45.56158843
Si      46.93212863      44.21393829      44.20502801
Si      48.29546512      45.58407017      45.57767159
Si      49.63604885      46.93884797      44.23522743
Si      38.78293778      33.38155785      46.92643149
Si      40.16007248      34.70640738      48.29024379
Si      41.50495119      36.07527077      46.94764040
Si      42.86758252      37.42786073      48.28125331
Si      44.22866433      38.81559783      46.94627378
Si      45.58288252      40.16169669      48.30723002
Si      46.93849952      41.51611676      46.95082159
Si      48.31441831      42.88559121      48.29003908
Si      49.64541675      44.22905686      46.93076216
Si      41.50843899      33.36757693      49.66424429
Si      42.86040866      34.72279167      51.00256402
Si      44.23110433      36.07177442      49.65306185
Si      45.55465155      37.43418788      51.01717390
Si      46.93088522      38.78820366      49.64825817
Si      48.28525595      40.14025589      50.99658964
Si      49.65323156      41.49929998      49.66373527
Si      44.21928091      33.35963547      52.36672663
Si      45.59894240      34.71888559      53.73531478
Si      46.94411246      36.08937931      52.36230351
Si      46.94168939      33.36524543      55.09372963
Si      25.20203154      36.07545210      36.07325005
Si      26.55073884      37.41956531      37.42913232
Si      27.94208693      38.78344467      36.06585236
Si      29.29137668      40.14890970      37.43500437
Si      30.64706186      41.52630126      36.07638287
Si      32.01283172      42.87137186      37.42844040
Si      33.36485730      44.22177145      36.08470800
Si      34.71588910      45.59102814      37.43519266
Si      36.06837339      46.94807734      36.06165959
Si      37.43132650      48.28784145      37.43486862
Si      38.79201910      49.65550690      36.07006986
Si      40.14489657      50.99764014      37.44048355
Si      41.50413775      52.36227497      36.06519750
Si      42.86090916      53.73667018      37.43939389
Si      44.22733094      55.10149225      36.07975163
Si      27.93868016      36.06527170      38.78064569
Si      29.29040889      37.42912715      40.12563829
Si      30.64263834      38.78972896      38.79717839
Si      32.00718714      40.15299391      40.14387571
Si      33.38331645      41.49317824      38.78097275
Si      34.70947101      42.87070968      40.12335014
Si      36.06887246      44.22687288      38.79793680
Si      37.44733879      45.57223298      40.16574907
Si      38.78910098      46.94278476      38.79942053
Si      40.14063110      48.29177095      40.14601001
Si      41.50344424      49.64886274      38.80035100
Si      42.85860891      50.99532389      40.13854653
Si      44.21833471      52.38543010      38.79938131
Si      45.57881952      53.73535484      40.15811561
Si      30.64169147      36.08223350      41.48829337
Si      31.98746508      37.42912608      42.86071024
Si      33.36509730      38.79963684      41.50666564
Si      34.71550002      40.12117955      42.86021421
Si      36.08247951      41.50690260      41.52872948
Si      37.44136613      42.83869370      42.86754302
Si      38.79106457      44.21607057      41.51993426
Si      40.15126019      45.57928810      42.85338138
Si      41.51658387      46.93288264      41.49135177
Si      42.84955180      48.30932477      42.88098132
Si      44.22108943      49.66945072      41.50719964
Si      45.58331493      51.00322285      42.88135412
Si      33.37302477      36.06304687      44.21334368
Si      34.71030818      37.43396969      45.59979722
Si      36.08377570      38.78826952      44.21294357
Si      37.43119715      40.16276534      45.58232184
Si      38.79306056      41.49964630      44.22184031
Si      40.15213910      42.87977111      45.55952568
Si      41.51301018      44.22845481      44.23098644
Si      42.86399383      45.56773491      45.57407773
Si      44.23436062      46.94330792      44.23725018
Si      45.57855502      48.28098247      45.57514495
Si      46.94668456      49.65728232      44.22094689
Si      36.05344747      36.09463227      46.94808725
Si      37.42233329      37.43368894      48.29319522
Si      38.79733975      38.79881155      46.92293981
Si      40.13624345      40.13859928      48.28309102
Si      41.48506958      41.51354282      46.93052228
Si      42.86135851      42.87245457      48.30529241
Si      44.21679500      44.21761358      46.95387003
Si      45.57456204      45.58523885      48.28627583
Si      46.93623906      46.92761584      46.92899227
Si      38.80036218      36.08620716      49.65328872
Si      40.13716863      37.42863216      50.99812287
Si      41.51485721      38.80440407      49.64035857
Si      42.87026919      40.14630998      51.02403112
Si      44.22438477      41.52219660      49.64724077
Si      45.58862642      42.87121599      51.01530423
Si      46.92236138      44.23170094      49.65959597
Si      41.51553440      36.09764395      52.38087361
Si      42.85631456      37.43242233      53.70961113
Si      44.21886762      38.78585831      52.35344901
Si      45.58187668      40.14357767      53.70083334
Si      44.20823463      36.08268570      55.08062180
Si      25.19930610      38.80680972      38.78926110
Si      26.57989946      40.15395752      40.14899794
Si      27.93566077      41.49959869      38.77592366
Si      29.29584090      42.85683981      40.13637844
Si      30.63754558      44.21678543      38.79237233
Si      32.00895662      45.59487556      40.15151976
Si      33.37782090      46.93301381      38.79041212
Si      34.72739774      48.30682099      40.14732136
Si      36.07639366      49.63549039      38.79310070
Si      37.42313329      50.98195354      40.14747760
Si      38.81039240      52.36699012      38.80588360
Si      40.15485001      53.73144610      40.14678007
Si      41.50192534      55.06415388      38.79676441
Si      27.91480830      38.80012452      41.51385964
Si      29.27826637      40.16467237      42.86209053
Si      30.63837185      41.50827820      41.50540603
Si      32.00653789      42.85094348      42.86739355
Si      33.35947117      44.21703490      41.51648547
Si      34.71829247      45.56896427      42.86502538
Si      36.09095822      46.92493057      41.49512646
Si      37.42264406      48.28280962      42.85554944
Si      38.80310460      49.65011848      41.50069748
Si      40.13583892      50.99384673      42.86393978
Si      41.49867339      52.37618601      41.50223196
Si      42.85808645      53.71296806      42.88800661
Si      30.65738692      38.79739382      44.21656090
Si      32.00805220      40.14852954      45.57905853
Si      33.36329539      41.50225356      44.22233066
Si      34.71670228      42.86593489      45.58906219
Si      36.07614679      44.19628464      44.20818794
Si      37.42174710      45.57888343      45.58742069
Si      38.79910205      46.94772294      44.20656010
Si      40.14665793      48.27895888      45.58083587
Si      41.51430910      49.65987514      44.24176896
Si      42.86716548      50.99792851      45.57944085
Si      44.20241466      52.38001515      44.23332744
Si      33.35920872      38.77745293      46.94009671
Si      34.70088913      40.14141100      48.27951908
Si      36.08835904      41.51136876      46.93830287
Si      37.43247097      42.87996233      48.30764577
Si      38.78689306      44.22702823      46.94174473
Si      40.14659644      45.57280020      48.29089385
Si      41.49589913      46.92390523      46.94034065
Si      42.85840673      48.28935078      48.28196668
Si      44.23533556      49.64808583      46.94098880
Si      36.09235296      38.80475690      49.67068316
Si      37.44720507      40.13914354      51.01840755
Si      38.78045418      41.50934666      49.65877598
Si      40.15411893      42.86777598      51.02428044
Si      41.51187384      44.22242868      49.63711019
Si      42.86590143      45.56781922      51.01261988
Si      44.21715810      46.93760328      49.67521488
Si      38.79435414      38.79186690      52.36751299
Si      40.15136716      40.14026437      53.71062379
Si      41.51728942      41.49771344      52.37253148
Si      42.87011148      42.86433968      53.73679575
Si      44.23278192      44.22991948      52.36429467
Si      41.50107839      38.78418852      55.09133188
Si      25.22152796      41.51418708      41.52277913
Si      26.57053161      42.84428883      42.86258912
Si      27.92899193      44.20737486      41.50109386
Si      29.29757414      45.57900188      42.86928891
Si      30.64731814      46.93807386      41.50398094
Si      31.99931197      48.30459787      42.86113670
Si      33.36383794      49.63235226      41.49740011
Si      34.72332393      51.01344834      42.86853916
Si      36.06009965      52.36952988      41.51307308
Si      37.41738109      53.71527655      42.86250013
Si      38.78298617      55.08641067      41.51515583
Si      27.92283144      41.51337011      44.21275861
Si      29.28324567      42.87741794      45.57627135
Si      30.65109089      44.20889598      44.23261858
Si      32.01537200      45.58252642      45.58025459
Si      33.34554608      46.95011545      44.23765147
Si      34.72711032      48.30912402      45.57569475
Si      36.08408704      49.65026296      44.22226014
Si      37.43115924      50.99062696      45.59202538
Si      38.80474722      52.37925073      44.19147657
Si      40.16515856      53.73478428      45.57545906
Si      30.64734605      41.51507049      46.93292174
Si      31.99235588      42.86113154      48.29980604
Si      33.36974333      44.19694484      46.93670696
Si      34.72251302      45.56266354      48.30381009
Si      36.06453870      46.94288962      46.94068198
Si      37.42635889      48.28413768      48.29570196
Si      38.79070779      49.65758075      46.94194692
Si      40.15482167      50.99271669      48.27934885
Si      33.36273854      41.50313031      49.65711392
Si      34.70832492      42.86454097      51.01542862
Si      36.08460588      44.20511988      49.65659008
Si      37.44050727      45.58544582      51.02273638
Si      38.77850983      46.92547010      49.66280884
Si      40.14282470      48.28463113      51.01087907
Si      41.50573483      49.65164171      49.65630653
Si      36.06963267      41.49717989      52.37056439
Si      37.43203509      42.88383566      53.73567393
Si      38.78418038      44.21372542      52.36386854
Si      40.12692511      45.57968532      53.73172323
Si      38.79872875      41.51821163      55.06975694
Si      25.23067726      44.21812138      44.21731033
Si      26.54484385      45.58269625      45.58977731
Si      27.91511446      46.93397269      44.25111789
Si      29.28030599      48.28192643      45.58032768
Si      30.64589888      49.66284961      44.22642636
Si      32.01316605      50.99555092      45.57413557
Si      33.35643314      52.35512550      44.21718599
Si      34.70347576      53.73557390      45.56553164
Si      36.07475108      55.07678545      44.20249794
Si      27.92150361      44.20835105      46.93136116
Si      29.29950946      45.57491027      48.29315454
Si      30.65462359      46.93228400      46.93556864
Si      32.01097925      48.31301531      48.28626680
Si      33.37023427      49.65482191      46.93383733
Si      34.71548905      51.01663026      48.29261783
Si      36.07882387      52.36122492      46.93144058
Si      30.65760312      44.21180380      49.65798634
Si      32.01273294      45.57044433      50.99356832
Si      33.32340483      46.94336382      49.65790916
Si      34.71617857      48.29270099      51.03020539
Si      36.08381166      49.64328977      49.65768107
Si      33.36007820      44.21367774      52.37191115
Si      34.70922222      45.57109037      53.72884235
Si      36.07418812      46.92831641      52.37189452
Si      36.07509646      44.21142846      55.09624300
Si      25.22928078      46.95463569      46.93975789
Si      26.57578126      48.31028000      48.29111883
Si      27.92304280      49.63430207      46.95461818
Si      29.27925343      51.02517344      48.29487325
Si      30.64931110      52.35792990      46.92800426
Si      31.99435436      53.73776647      48.30131175
Si      33.36861005      55.08584458      46.93877975
Si      27.92901232      46.92192719      49.65955865
Si      29.29136793      48.27824109      51.03619684
Si      30.65561140      49.66192556      49.64673316
Si      32.00759913      51.01108322      51.00080824
Si      33.37039431      52.36716381      49.66150592
Si      30.64932730      46.90074384      52.35781356
Si      32.01381507      48.29319340      53.71417749
Si      33.35589275      49.65047357      52.35864071
Si      33.35422065      46.94080406      55.07844904
Si      25.22205594      49.65566149      49.68206481
Si      26.56298274      51.01107433      51.01697482
Si      27.93581104      52.37264300      49.65069354
Si      27.91867286      49.64841397      52.37870947
