108
Lattice="15.313931136180852 0.0 0.0 0.0 19.27690074279033 0.0 0.0 0.0 17.48438100050315" Properties=species:S:1:pos:R:3 id=sample_001342 pbc="F F F"
Si      -0.02277094       0.00375555       0.00465132
Si      -0.01931566       3.20059070       2.91148489
Si       2.54980244      -0.00518765       2.91501019
Si       2.54476208       3.22455501       0.00818422
Si      -0.00425575       0.01379463       5.82792067
Si      -0.00228282       3.20228572       8.73711198
Si       2.55586014       0.00222870       8.73580756
Si       2.54047574       3.20746783       5.82510632
Si      -0.01131636       0.01355795      11.67812314
Si      -0.01279121       3.19818125      14.57035080
Si       2.55562790       0.00663617      14.58694660
Si       2.56071635       3.21889778      11.64507079
Si       0.00306364       6.43836297      -0.00354614
Si      -0.01374513       9.62683683       2.91111335
Si       2.55122208       6.39737825       2.91635327
Si       2.55854142       9.64483885      -0.00642437
Si      -0.00342571       6.40852007       5.81034454
Si       0.02570028       9.62956834       8.73896224
Si       2.54034327       6.41490773       8.73134716
Si       2.55255224       9.64545666       5.84143444
Si      -0.00048602       6.43770152      11.65512968
Si       0.00077585       9.64988031      14.57683605
Si       2.55283371       6.40475055      14.57963225
Si       2.55269735       9.63771721      11.65643616
Si      -0.00881455      12.85589003       0.00041110
Si       0.00357802      16.07275028       2.91319032
Si       2.53854107      12.85369171       2.90424720
Si       2.54954833      16.05751653      -0.00716658
Si      -0.00871268      12.84275180       5.81819483
Si       0.00699163      16.04536243       8.74530404
Si       2.56253994      12.83940555       8.73729480
Si       2.55597181      16.05893664       5.83330978
Si      -0.00442113      12.84843489      11.66069975
Si      -0.01300561      16.06706194      14.56106949
Si       2.56539551      12.85785988      14.58033896
Si       2.55255521      16.06738261      11.65926154
Si       5.09332942      -0.00342836      -0.01243120
Si       5.11264493       3.22245870       2.92455746
Si       7.65724609      -0.00506991       2.91913531
Si       7.66797456       3.21451983      -0.01033079
Si       5.10839485       0.00551553       5.82026367
Si       5.10284999       3.22283081       8.74762001
Si       7.63371925       0.01276507       8.75104639
Si       7.67354558       3.20348029       5.80568487
Si       5.11094017      -0.00440281      11.65404442
Si       5.10700517       3.22440477      14.54505835
Si       7.63235001      -0.00764742      14.56927673
Si       7.66761244       3.20337669      11.65821556
Si       5.07994430       6.42041562       0.00258697
Si       5.11117574       9.63477286       2.91765801
Si       7.64898347       6.43391725       2.90729459
Si       7.66275108       9.64765204       0.00893014
Si       5.10168659       6.41478060       5.84508827
Si       5.11970811       9.64573617       8.73404057
Si       7.64092488       6.44711632       8.74073199
Si       7.64880321       9.64098850       5.82391074
Si       5.10552200       6.43229047      11.66819235
Si       5.10886059       9.62653426      14.57962769
Si       7.65529187       6.42027332      14.57895248
Si       7.64963864       9.63659910      11.67126642
Si       5.09746557      12.86775477      -0.00361823
Si       5.11220282      16.07598601       2.91703599
Si       7.64084092      12.84679812       2.91788467
Si       7.66306805      16.05963979      -0.03434342
Si       5.09784391      12.84693896       5.81490272
Si       5.10231448      16.08818145       8.74153295
Si       7.65764244      12.84599176       8.75031467
Si       7.63708599      16.07617395       5.83343180
Si       5.09012619      12.85987158      11.65150975
Si       5.11692773      16.08288660      14.56899548
Si       7.65650286      12.85351543      14.57102708
Si       7.65712504      16.05670344      11.64643092
Si      10.20514232       0.00669799       0.00380808
Si      10.19079801       3.21445149       2.89596508
Si      12.75403147      -0.01471765       2.91637867
Si      12.76434281       3.21030594       0.01089137
Si      10.19595572      -0.01278167       5.84121103
Si      10.19766916       3.19942111       8.72893385
Si      12.76116581      -0.00728641       8.75502486
Si      12.75972404       3.20460304       5.81244310
Si      10.19834811      -0.00660141      11.65433419
Si      10.20808665       3.20806564      14.56356106
Si      12.75817352      -0.02287689      14.57684305
Si      12.76990782       3.19394732      11.66517944
Si      10.19434751       6.41727648      -0.00937393
Si      10.20569970       9.65168074       2.91571302
Si      12.77775737       6.43521262       2.90331120
Si      12.74865832       9.62975626      -0.00280012
Si      10.21124919       6.40445282       5.84382021
Si      10.21028194       9.64047956       8.73920258
Si      12.76205077       6.43951161       8.76330390
Si      12.76415918       9.63203977       5.83207148
Si      10.20965627       6.40462140      11.66169694
Si      10.21397295       9.65772725      14.57031505
Si      12.76952461       6.42588912      14.56874427
Si      12.76255209       9.64362565      11.64446236
Si      10.22626112      12.85342919      -0.01999943
Si      10.21716120      16.05061200       2.90398060
Si      12.76518603      12.83949669       2.90569099
Si      12.75016678      16.05602034      -0.00755290
Si      10.21271909      12.84947362       5.83265710
Si      10.20142936      16.08071757       8.72666887
Si      12.76260380      12.86141050       8.75769218
Si      12.75544028      16.05072602       5.82600699
Si      10.19491380      12.85675112      11.65711001
Si      10.19939811      16.05551292      14.56705171
Si      12.75423400      12.83308329      14.56146330
Si      12.77585813      16.06105377      11.65174936
