11
Lattice="98.62458919752487 0.0 0.0 0.0 98.62458919752487 0.0 0.0 0.0 98.62458919752487" Properties=species:S:1:pos:R:3:initial_magmoms:R:1 id=sample_001404 pbc="T T T"
Fe      48.53127176      48.54215613      48.54494848       2.30000000
Fe      49.96493445      49.97545821      47.10602887       2.30000000
Fe      51.37857691      51.40527147      45.67225707       2.30000000
Fe      49.97252791      47.09882017      49.98115615       2.30000000
Fe      51.39107291      48.52772386      48.53688726       2.30000000
Fe      51.41009489      45.66505687      51.40018895       2.30000000
Fe      47.12427837      49.97422815      49.97345607       2.30000000
Fe      48.53335162      51.40001950      48.52917019       2.30000000
Fe      48.53611941      48.52250778      51.39335694       2.30000000
Fe      49.96937763      49.97542461      49.97828541       2.30000000
Fe      45.67005657      51.41287086      51.39677444       2.30000000
