256
Lattice="23.964909575654886 0.0 0.0 0.0 23.622339187595585 0.0 0.0 0.0 27.32486659210225" Properties=species:S:1:pos:R:3 id=sample_000068 pbc="F F F"
Si       0.00410287       0.00490014      -0.00814689
Si       0.00650873       2.95895892       3.41729732
Si       2.99227030       0.01828537       3.42736049
Si       2.99237871       2.93653312      -0.00146587
Si      -0.00281469      -0.02050488       6.83733710
Si      -0.00010740       2.94865675      10.24740478
Si       2.98715535       0.00547662      10.26130979
Si       3.02862728       2.93897806       6.85602624
Si       0.01663673      -0.00548129      13.66385937
Si      -0.00567997       2.94450168      17.07264483
Si       2.99956198       0.01062017      17.06544754
Si       2.99288363       2.97528075      13.65724509
Si       0.00351258      -0.00440675      20.49071640
Si      -0.00808906       2.95360287      23.91218421
Si       2.98799222       0.00303778      23.91057751
Si       3.01800726       2.93934973      20.50476547
Si       0.00757570       5.91400888       0.00531095
Si      -0.01040191       8.86069297       3.41235828
Si       2.98293115       5.90114185       3.42665578
Si       3.00555667       8.85365412      -0.00252291
Si      -0.01245632       5.89836891       6.83560545
Si      -0.00135292       8.84951753      10.26706731
Si       2.99315692       5.91766719      10.23850522
Si       3.00836719       8.85962072       6.83775842
Si       0.00544985       5.89693763      13.67232359
Si       0.00490185       8.83795390      17.06576172
Si       3.00645698       5.90913289      17.05932118
Si       2.99012061       8.85745874      13.67016466
Si      -0.00822271       5.89852038      20.48025913
Si      -0.00673078       8.87180284      23.90237095
Si       2.98746529       5.89890749      23.91597102
Si       2.99831547       8.87530904      20.49240017
Si       0.00126199      11.79984434       0.01256046
Si      -0.01584484      14.77259842       3.43257281
Si       3.00209630      11.80156373       3.42560768
Si       2.98894863      14.77072709       0.00730127
Si      -0.00926765      11.81759439       6.84333319
Si       0.00434815      14.74418942      10.24576111
Si       2.98144976      11.79081267      10.25136000
Si       3.00912651      14.75934161       6.81783445
Si       0.01887594      11.82442637      13.66919014
Si      -0.00966582      14.76140522      17.06508349
Si       2.99269763      11.81222802      17.07169591
Si       2.99990925      14.77444709      13.65636841
Si      -0.00944904      11.80879595      20.50853644
Si      -0.00882403      14.78048875      23.91461631
Si       2.98446933      11.80059761      23.89568508
Si       2.99343883      14.76030640      20.51585895
Si      -0.00108730      17.71077267       0.00124729
Si       0.02219915      20.67664433       3.41908097
Si       3.00713361      17.71547389       3.40611443
Si       2.98071276      20.67892016      -0.00333249
Si       0.00607739      17.72246477       6.83378877
Si       0.00516223      20.66126956      10.25763465
Si       3.01462025      17.70649935      10.24319496
Si       2.99494276      20.67156334       6.84340641
Si      -0.00700323      17.72564440      13.67763624
Si       0.00866393      20.67011745      17.06648237
Si       3.00410359      17.73009415      17.06891156
Si       2.99516098      20.68150130      13.65664411
Si      -0.00659046      17.71303802      20.47778526
Si       0.00308381      20.68084484      23.90726632
Si       2.99465474      17.71195022      23.89679644
Si       2.99320923      20.68767180      20.49716966
Si       5.99753539      -0.00708457       0.00452947
Si       6.00952488       2.94760271       3.42234956
Si       8.99909559      -0.00525320       3.42454739
Si       8.97099799       2.94355465      -0.00175690
Si       5.97798829      -0.00364307       6.82142248
Si       5.98207326       2.93434251      10.23850361
Si       8.97957476       0.00134608      10.24664486
Si       8.98948119       2.95447961       6.84313999
Si       5.99530870      -0.01317807      13.67171483
Si       5.97630806       2.95959252      17.08418593
Si       8.98448294       0.01322194      17.07240645
Si       8.98613462       2.95341009      13.65016755
Si       5.99097312       0.00367074      20.49248949
Si       5.99700274       2.94293235      23.91959601
Si       8.99012743      -0.01556455      23.91096022
Si       8.97280652       2.95667294      20.49302984
Si       6.01076258       5.91035828      -0.01483143
Si       5.97640469       8.84972137       3.41134929
Si       8.98482126       5.90780505       3.42404685
Si       8.98878160       8.85725954       0.01507549
Si       5.99807894       5.89590135       6.82400054
Si       5.99189243       8.85412665      10.26081610
Si       8.99370454       5.90973532      10.24839624
Si       8.99192500       8.84801698       6.82025345
Si       5.99552627       5.91401280      13.65398727
Si       5.98081166       8.85375266      17.07944634
Si       9.00211643       5.89511052      17.07788865
Si       8.97908692       8.87742469      13.64367546
Si       5.98219875       5.90380363      20.49911838
Si       5.98840440       8.86201041      23.90469694
Si       8.97678156       5.89021138      23.91798182
Si       8.97952768       8.84955601      20.49798112
Si       5.99444214      11.81587907      -0.00824623
Si       5.99644097      14.77586211       3.43323224
Si       8.98253986      11.80551151       3.41586572
Si       8.98248745      14.77478803       0.00353949
Si       5.99070292      11.81390869       6.84327976
Si       5.98386902      14.75035645      10.24021779
Si       8.99261901      11.80458255      10.23782153
Si       8.97055276      14.76436285       6.84678842
Si       5.97994441      11.82173598      13.67244328
Si       6.00395694      14.76197184      17.07122154
Si       8.98073805      11.79974585      17.08173301
Si       8.98462182      14.76257856      13.67998262
Si       5.98500310      11.81054994      20.50361665
Si       5.98676156      14.76161105      23.90711168
Si       8.98655476      11.81153258      23.89911002
Si       8.98828053      14.77761588      20.48755211
Si       5.97860282      17.71648328      -0.00479910
Si       5.98369826      20.67375743       3.43502492
Si       9.00601648      17.71406799       3.41483752
Si       8.99431395      20.66457333       0.00489314
Si       5.98998631      17.71270491       6.84025296
Si       5.99604052      20.66864769      10.24435769
Si       8.98537856      17.70376120      10.23931524
Si       8.98763271      20.67503698       6.84300169
Si       5.99319185      17.72760078      13.65961501
Si       6.00647304      20.67392985      17.06847573
Si       8.97780076      17.71293992      17.08874034
Si       8.97565591      20.66715610      13.67244604
Si       5.97617395      17.68821135      20.50675588
Si       6.00897133      20.68105756      23.90624538
Si       8.98589123      17.74120408      23.89728248
Si       8.99630724      20.67210591      20.48121484
Si      11.99971830       0.00424920       0.00619904
Si      11.97291347       2.95436794       3.42169517
Si      14.98827656       0.00002090       3.41023693
Si      14.97136040       2.95961542      -0.01742925
Si      11.98199424       0.00858439       6.83702559
Si      11.99116238       2.96935605      10.23456590
Si      14.98634541      -0.00479725      10.24146743
Si      14.97646872       2.97202639       6.85122845
Si      11.98358602       0.00730241      13.64840276
Si      12.00030809       2.94177444      17.07758918
Si      14.98460511      -0.00818294      17.07200612
Si      14.98543197       2.97104205      13.65955887
Si      11.97319428       0.00300121      20.48789007
Si      11.98891472       2.94266666      23.89913728
Si      14.97934039       0.01203386      23.90965270
Si      14.99056710       2.95912900      20.49912883
Si      11.97148964       5.89560942       0.00044309
Si      11.98232161       8.87204554       3.41197085
Si      14.97073845       5.91086593       3.39260701
Si      14.98150920       8.83958008      -0.01255173
Si      11.98958684       5.91309166       6.83539052
Si      11.98332064       8.86860021      10.25324771
Si      14.97496311       5.90476440      10.25918612
Si      14.98115188       8.85205643       6.82463830
Si      11.98619365       5.88162715      13.65214015
Si      11.97533041       8.85653911      17.07046633
Si      14.98424661       5.91096137      17.08082950
Si      14.98140818       8.86565691      13.65961941
Si      11.98781058       5.89423300      20.49340900
Si      11.97154347       8.84618165      23.91153851
Si      14.97546829       5.92669755      23.89993010
Si      14.98681927       8.83617558      20.47972566
Si      11.98715715      11.81586615      -0.00329003
Si      11.99025243      14.76704402       3.40518202
Si      14.97464338      11.80726699       3.40681206
Si      14.96675530      14.76507746      -0.00270895
Si      12.00070258      11.82101090       6.81931724
Si      11.97987564      14.76401191      10.24298480
Si      14.94220990      11.80338654      10.22971664
Si      14.98510766      14.77457471       6.82370874
Si      11.97524399      11.80749434      13.67358298
Si      11.98156432      14.76976855      17.08011753
Si      14.96889393      11.80249810      17.06974415
Si      14.98162414      14.76258632      13.65374106
Si      11.98979307      11.80571262      20.51107105
Si      11.96949034      14.76548155      23.92212849
Si      14.99346807      11.82458684      23.92279754
Si      14.97787636      14.76136482      20.49621168
Si      11.98000549      17.70933854      -0.00204396
Si      11.97570834      20.67544505       3.42702675
Si      14.97416093      17.69703165       3.41563597
Si      14.98111693      20.65700996       0.01377613
Si      11.97783270      17.71597101       6.82735005
Si      11.96172742      20.65006503      10.22763435
Si      14.98270021      17.71181760      10.26415982
Si      14.97215873      20.67828532       6.84354547
Si      11.98128276      17.70953760      13.65827316
Si      11.98583791      20.65529671      17.07143912
Si      14.98879274      17.71850493      17.06579647
Si      14.98377013      20.66355724      13.66528251
Si      11.97140877      17.71148813      20.48021049
Si      11.98233478      20.67043457      23.93095422
Si      14.95674498      17.69834058      23.89614368
Si      14.98078480      20.67179773      20.50140983
Si      17.97521499       0.00052818      -0.00634795
Si      17.97046990       2.95571384       3.42152696
Si      20.97984579       0.01246710       3.42140294
Si      20.97408788       2.95881330       0.00088828
Si      17.97103166       0.01034257       6.82341085
Si      17.97633550       2.94890561      10.24012455
Si      20.99378062       0.01730938      10.25074592
Si      20.96720455       2.94966850       6.82164267
Si      17.95496813       0.00907632      13.66779571
Si      17.97829034       2.96407137      17.05380847
Si      20.96275327      -0.01092975      17.08003817
Si      20.99000596       2.95557847      13.68034129
Si      17.97454809       0.00935729      20.50018590
Si      17.97875047       2.95539823      23.90208024
Si      20.97128541       0.01267657      23.90766881
Si      20.97261453       2.94057812      20.49389555
Si      17.98005987       5.91056254       0.01061825
Si      17.98309934       8.85774821       3.42679725
Si      20.96766121       5.90478063       3.41409609
Si      20.97126963       8.86581218      -0.01146208
Si      17.97449026       5.90035337       6.85197110
Si      17.97518057       8.85968552      10.25123321
Si      20.96688797       5.90390872      10.25113783
Si      20.97860902       8.85696751       6.82381710
Si      17.97119646       5.89337749      13.67101342
Si      17.97550856       8.85353813      17.07403851
Si      20.97512726       5.91208043      17.08386858
Si      20.97169787       8.83732995      13.64860809
Si      17.97793947       5.89969549      20.48816240
Si      17.97947568       8.83994472      23.90205535
Si      20.98901421       5.89355790      23.89616959
Si      20.96727761       8.87388255      20.47853283
Si      17.97776959      11.81299664       0.00641609
Si      17.97578565      14.75760476       3.40820825
Si      20.96228025      11.80882846       3.42705806
Si      20.96414128      14.78232739       0.01431089
Si      17.97219363      11.80825259       6.83228792
Si      17.96224466      14.75640393      10.25146409
Si      20.97560083      11.81306698      10.25776122
Si      20.95470646      14.76234091       6.82532422
Si      17.97077020      11.80804633      13.65387023
Si      17.98102882      14.76309585      17.06287514
Si      20.96143128      11.81784042      17.07998627
Si      20.99195714      14.75399275      13.66636997
Si      17.97558611      11.81800527      20.49849224
Si      17.96174321      14.75406170      23.91127165
Si      20.96254570      11.80410722      23.90807663
Si      20.95764330      14.77658519      20.50793696
Si      17.96133901      17.71700124       0.00169463
Si      17.97253292      20.66676482       3.42900935
Si      20.95012690      17.71317447       3.42199741
Si      20.95121760      20.69544734       0.00554552
Si      17.97181346      17.72062607       6.81967709
Si      17.98353875      20.67284296      10.25006520
Si      20.99842014      17.70693090      10.26010580
Si      20.96103831      20.68398074       6.81682848
Si      17.96523312      17.71594174      13.65443256
Si      17.98229101      20.69161280      17.07055287
Si      20.95918082      17.72226035      17.06791819
Si      20.98617166      20.67191224      13.68091014
Si      17.99919172      17.71767898      20.49309824
Si      17.98027565      20.69077500      23.89903061
Si      20.96226090      17.72125576      23.89762997
Si      20.96557688      20.68557168      20.47433164
