108
Lattice="19.54088055687219 0.0 0.0 0.0 16.043731344791357 0.0 0.0 0.0 20.38590382441337" Properties=species:S:1:pos:R:3 id=sample_000081 pbc="F F F"
Si       0.00398579      -0.00361472       0.00461929
Si      -0.00315694       2.66920112       3.40746709
Si       3.24547502       0.00076138       3.41818553
Si       3.25678913       2.67034089      -0.00468731
Si      -0.01879968      -0.00142944       6.79265147
Si       0.00943931       2.67140469      10.19649687
Si       3.26023151       0.00637344      10.18840591
Si       3.25730313       2.67929193       6.78386366
Si       0.00264976      -0.00917214      13.58492191
Si       0.00449240       2.68270793      16.98394296
Si       3.26264238       0.00114863      16.97954479
Si       3.26891264       2.68057525      13.57896589
Si      -0.00203399       5.34083845      -0.00535006
Si      -0.00023411       8.02186760       3.37632741
Si       3.25213790       5.35756204       3.39009256
Si       3.25343885       8.02508657       0.00195955
Si      -0.00211324       5.34082543       6.78706792
Si      -0.00121326       8.02458499      10.19688701
Si       3.26374627       5.35353157      10.19352626
Si       3.26697270       8.03430560       6.78230961
Si      -0.02178552       5.32340578      13.60321418
Si       0.02717984       8.01652688      16.99523579
Si       3.24706052       5.33183974      16.98409869
Si       3.25634240       8.00233079      13.58917386
Si      -0.00398077      10.70747556      -0.01626991
Si      -0.01112944      13.34902205       3.42465290
Si       3.27144648      10.69007947       3.39672319
Si       3.25878489      13.38020650       0.00931978
Si       0.00586835      10.69859990       6.78425914
Si      -0.01144451      13.37598397      10.18728905
Si       3.28008012      10.68821895      10.20771867
Si       3.24668075      13.36698395       6.79043431
Si       0.02046704      10.68675663      13.59889117
Si      -0.00333783      13.38404582      16.97650482
Si       3.26783160      10.69820191      16.99941831
Si       3.27320551      13.37316222      13.61033133
Si       6.51356554      -0.00039795       0.00084187
Si       6.51009301       2.68397425       3.37526275
Si       9.78139441      -0.01872191       3.41165263
Si       9.78605649       2.66131875      -0.00426410
Si       6.51691643      -0.01988192       6.80607899
Si       6.50746797       2.67711467      10.19833363
Si       9.76195248       0.00925425      10.19626203
Si       9.78297801       2.66978446       6.79335573
Si       6.51630511      -0.01773374      13.56431559
Si       6.50950838       2.65392277      16.98522738
Si       9.76638505       0.01484695      17.00637047
Si       9.76840708       2.66765141      13.58583322
Si       6.51366673       5.34677159      -0.00986346
Si       6.51222738       8.01272587       3.41354949
Si       9.77919096       5.34896239       3.40889294
Si       9.78468623       7.99756155       0.00566372
Si       6.51961364       5.34268606       6.80030477
Si       6.48451426       8.02314640      10.18089439
Si       9.75633688       5.34877595      10.18846652
Si       9.76832638       8.01862554       6.79058848
Si       6.52597625       5.33666246      13.59613345
Si       6.51552447       8.04369156      16.98392135
Si       9.77947846       5.34244741      16.99388350
Si       9.79523293       8.02287036      13.59014909
Si       6.49129978      10.69014154       0.00143351
Si       6.52077121      13.38425679       3.40134264
Si       9.79303564      10.69140203       3.40233140
Si       9.76029589      13.35843564       0.00648768
Si       6.51340543      10.69863442       6.78707645
Si       6.51129304      13.36295239      10.19756025
Si       9.77874613      10.67983346      10.18854056
Si       9.78267973      13.37327176       6.80246196
Si       6.50555124      10.67684561      13.59600128
Si       6.52890805      13.35686010      16.98211936
Si       9.76209007      10.69820039      16.98564417
Si       9.76734718      13.37147180      13.59292934
Si      13.03711082      -0.01037687       0.01244489
Si      13.01861190       2.66464303       3.40529462
Si      16.27066312       0.00846758       3.39935334
Si      16.26181512       2.66711287      -0.00866000
Si      13.02251811      -0.01034512       6.78918229
Si      13.03584144       2.68059969      10.18763972
Si      16.28965734       0.00862792      10.19013863
Si      16.29112482       2.65726293       6.80321777
Si      13.02192583       0.00461990      13.61254008
Si      13.03433123       2.66334399      16.97937357
Si      16.27772320       0.01755050      16.97175099
Si      16.26872100       2.68964617      13.59409987
Si      13.02954277       5.34906106      -0.01332806
Si      13.03582706       8.01670429       3.39674324
Si      16.26896552       5.35655930       3.39706423
Si      16.30796216       8.00722121       0.00393026
Si      13.02051007       5.35589254       6.78299739
Si      13.04522010       8.01277715      10.18401658
Si      16.28829023       5.35571822      10.19167554
Si      16.28672990       8.02805552       6.79342804
Si      13.01952502       5.34642258      13.60244648
Si      13.03990887       8.02910804      16.99988203
Si      16.29759172       5.34219198      16.97412487
Si      16.28617591       8.01603855      13.60090150
Si      13.02446996      10.70558721      -0.01295115
Si      13.02615746      13.36845978       3.38813980
Si      16.28051363      10.70188262       3.39347488
Si      16.28803557      13.36826211       0.00882054
Si      13.03104334      10.69754898       6.79358903
Si      13.01913009      13.35376446      10.19307872
Si      16.28589850      10.70069341      10.17417082
Si      16.27244991      13.36770797       6.80245415
Si      13.02620435      10.68424847      13.59954148
Si      13.02983823      13.36405087      16.99034897
Si      16.29650969      10.70332608      16.98847092
Si      16.29135198      13.37232893      13.59381803
