452
Lattice="66.18098581424822 0.0 0.0 0.0 66.18098581424822 0.0 0.0 0.0 66.18098581424822" Properties=species:S:1:pos:R:3 id=sample_000565 pbc="T T T"
Al      20.88479700      20.92036730      20.90695504
Al      22.93420800      22.92578973      20.89892701
Al      24.96244274      24.93317785      20.90047237
Al      26.96290534      26.97009810      20.89979547
Al      28.98925304      28.98836125      20.91935795
Al      31.03616833      31.03133724      20.89686269
Al      33.04838134      33.05522826      20.90798609
Al      35.06694109      35.08789887      20.90430609
Al      37.11629217      37.11121772      20.90085592
Al      39.13566567      39.12038168      20.90820848
Al      41.16338984      41.13169798      20.90364873
Al      22.95234944      20.88935890      22.93448431
Al      24.94728174      22.92547419      22.92645761
Al      26.97502750      24.95672382      22.93164663
Al      29.00561449      26.97606092      22.92529600
Al      31.02296080      29.02831982      22.93801935
Al      33.06330647      31.03997014      22.94320201
Al      35.07896475      33.04691443      22.93894147
Al      37.11834999      35.05845343      22.95956687
Al      39.11991357      37.10953726      22.93805022
Al      41.14541913      39.13224587      22.92077626
Al      43.17032501      41.17056956      22.92683006
Al      24.96389575      20.91070005      24.95782834
Al      26.95679930      22.94407274      24.93734611
Al      29.00514029      24.94607819      24.95514232
Al      31.02703699      26.96902297      24.95985407
Al      33.05961717      28.99868863      24.96997249
Al      35.07453930      31.02067483      24.96560124
Al      37.10157865      33.07760015      24.97260981
Al      39.14572061      35.08472828      24.95768412
Al      41.15736183      37.10550885      24.96979526
Al      43.17142835      39.13217942      24.94781278
Al      26.99640393      20.90898447      26.98777022
Al      28.99366588      22.92659963      26.98269311
Al      31.03167999      24.96479188      26.97582693
Al      33.06193146      26.98346192      26.97013991
Al      35.07780802      29.00757376      26.96584919
Al      37.10450889      31.01679660      26.97450461
Al      39.12392425      33.04365303      26.97743686
Al      41.16568027      35.07625458      26.98044667
Al      43.18498780      37.09585882      26.96040440
Al      45.21728337      39.11135338      26.96996630
Al      29.01523473      20.91872172      29.00140703
Al      31.01225136      22.92224296      29.01617953
Al      33.06478576      24.95334740      29.00682927
Al      35.06679998      26.98891794      29.00916019
Al      37.09250965      29.01807345      28.99345771
Al      39.13068552      31.02111597      29.00771987
Al      41.15545828      33.05727107      28.99028504
Al      43.16763806      35.07213407      29.00731464
Al      45.21408030      37.09833571      28.99286813
Al      31.02787472      20.90305685      31.04486963
Al      33.05164313      22.90996971      31.04409726
Al      35.08087413      24.95505413      31.03761762
Al      37.11279961      26.97283170      31.01302202
Al      39.14350804      29.01590677      31.02326573
Al      41.15547972      31.01253400      31.05116658
Al      43.19905914      33.05343038      31.04395790
Al      45.20482647      35.09263200      31.04742707
Al      33.05188133      20.90873201      33.04559334
Al      35.07819594      22.94870122      33.05518810
Al      37.08703270      24.95831818      33.03217033
Al      39.13567911      26.98216280      33.05134239
Al      41.13802371      29.00806202      33.05902103
Al      43.15447681      31.01800164      33.05933252
Al      45.20696350      33.06639226      33.06194532
Al      35.08423883      20.87548646      35.09072155
Al      37.10354111      22.92529717      35.04400012
Al      39.14218788      24.95876894      35.07687263
Al      41.16942855      26.98830924      35.08075878
Al      43.18751617      29.00679472      35.07567552
Al      45.18950851      31.03545059      35.09424842
Al      37.10138949      20.89673683      37.10149017
Al      39.12728075      22.92579425      37.09022758
Al      41.15270554      24.94009902      37.10249621
Al      43.19257717      26.99158177      37.10704321
Al      45.20859731      29.00106257      37.11451983
Al      39.12577627      20.91783341      39.13663494
Al      41.17215572      22.93513888      39.12850918
Al      43.17818371      24.94678178      39.14959489
Al      45.18555503      26.98022550      39.11675145
Al      41.14331018      20.90150734      41.13876473
Al      43.20487233      22.92086172      41.15379734
Al      20.90713450      22.93378512      22.93197023
Al      22.93283342      24.94824430      22.93127107
Al      24.94457592      26.98475205      22.93299210
Al      26.97860333      29.00878532      22.94135237
Al      29.00109789      31.04494145      22.94154666
Al      31.03538758      33.05847961      22.95182769
Al      33.04464493      35.08012389      22.95161673
Al      35.07605390      37.10928962      22.90288631
Al      37.11500489      39.13133092      22.93761609
Al      39.13291040      41.14263109      22.90864099
Al      41.15431216      43.17346372      22.91814944
Al      22.93620144      22.90611783      24.96036922
Al      24.94516302      24.97129341      24.95487237
Al      26.99201501      27.00322875      24.96229535
Al      28.99729076      29.01096037      24.92904625
Al      31.03280558      31.02927531      24.96307441
Al      33.04655565      33.05696040      24.97302216
Al      35.08680582      35.08275753      24.95260194
Al      37.10274834      37.11000093      24.95853109
Al      39.11873556      39.13177219      24.94480277
Al      41.15454429      41.15954871      24.94481309
Al      24.95448481      22.92439734      26.97760097
Al      26.96939061      24.97602080      26.98880805
Al      28.99808397      26.99194709      26.98018121
Al      31.02241865      29.01654906      26.97056497
Al      33.05855980      31.03381315      26.99269584
Al      35.08157260      33.04063069      26.98305977
Al      37.09987635      35.08993210      26.99089594
Al      39.12117561      37.10200140      26.97320019
Al      41.15397246      39.12840347      26.96311792
Al      43.18408305      41.15803265      26.97107761
Al      26.96251790      22.91005720      29.00298826
Al      29.00628913      24.94529984      28.99364045
Al      31.02611371      26.96614617      29.00710201
Al      33.07050172      29.00075841      28.99787260
Al      35.07990788      31.02891952      28.99031721
Al      37.11656461      33.05346491      29.00419430
Al      39.13998924      35.08929300      29.01027701
Al      41.13636770      37.09899905      29.01818290
Al      43.17983275      39.12858644      29.01072750
Al      28.99939867      22.92828528      31.01765846
Al      31.03191314      24.96255353      31.04528996
Al      33.04997045      26.98648490      31.03173409
Al      35.08879625      29.00386254      31.03823103
Al      37.09717044      31.03562982      31.03144620
Al      39.10884800      33.04463076      31.02636310
Al      41.16377360      35.07676730      31.03231843
Al      43.17682593      37.11760740      31.02304692
Al      31.03102592      22.92540353      33.06921802
Al      33.05261330      24.96261534      33.04953990
Al      35.09230844      26.98330356      33.04602728
Al      37.07708691      28.99076945      33.03944496
Al      39.12640237      31.02931001      33.04634101
Al      41.14997138      33.06546798      33.04766226
Al      43.20061979      35.07656640      33.05342490
Al      33.06801427      22.93161971      35.08389027
Al      35.07598303      24.95588377      35.07548739
Al      37.10339365      26.98166574      35.08470018
Al      39.13005845      29.00546810      35.07377939
Al      41.14481180      31.03400402      35.08622290
Al      43.17873477      33.06074761      35.07443556
Al      35.06368132      22.92138728      37.10138072
Al      37.11221645      24.96703522      37.11129211
Al      39.14498507      26.97387170      37.10824712
Al      41.15397578      29.00029241      37.11521566
Al      43.18166036      31.03548954      37.09766316
Al      37.11011284      22.93755564      39.12185152
Al      39.13406330      24.95345757      39.12699909
Al      41.15921232      26.97648667      39.12754321
Al      43.18547704      28.99746118      39.13048374
Al      39.13606935      22.92305485      41.14659789
Al      41.16879896      24.97093721      41.14625966
Al      43.16919758      26.97007904      41.17346898
Al      41.18239078      22.91813607      43.19278646
Al      20.89148292      24.93646125      24.94997463
Al      22.94558418      26.98039783      24.95538463
Al      24.96385761      28.99188543      24.95044527
Al      26.97073237      31.02495723      24.96502989
Al      29.01520833      33.04954292      24.95574566
Al      31.02722541      35.07839585      24.96568262
Al      33.06503962      37.10483969      24.95930405
Al      35.07621912      39.11616053      24.96431507
Al      37.08914140      41.14938692      24.95218042
Al      39.13099928      43.18310321      24.96506135
Al      22.93297961      24.94525766      26.97974665
Al      24.94517128      26.97883267      26.99849836
Al      26.95986164      28.99995216      26.96267318
Al      29.00193615      31.03670780      26.97562426
Al      31.02390310      33.04780730      26.97284035
Al      33.07358583      35.09276305      26.98369932
Al      35.08558511      37.11452364      26.98138580
Al      37.11291720      39.11769558      26.97754737
Al      39.13029292      41.16687966      27.00001886
Al      41.15628477      43.16137128      26.96495040
Al      24.95547231      24.96704043      29.00225637
Al      26.98454511      26.96730416      29.01104763
Al      29.00816951      29.00562818      28.99237261
Al      31.02438130      31.02683036      29.00208042
Al      33.06089474      33.05846389      29.00381128
Al      35.05869127      35.05914640      28.98663933
Al      37.09009508      37.08758879      29.02042659
Al      39.13143570      39.11800848      29.00272113
Al      41.14984104      41.16698931      29.00513148
Al      26.98279594      24.95419663      31.02310503
Al      29.02927990      26.97717551      31.03759186
Al      31.02647218      28.99473458      31.00941773
Al      33.05714349      31.04071888      31.02366930
Al      35.08120044      33.06316663      31.01670063
Al      37.10663047      35.08319105      31.03512896
Al      39.14413512      37.09520397      31.02511816
Al      41.15985505      39.12350257      31.02377575
Al      28.99996717      24.96214427      33.05431705
Al      31.02863072      26.97446012      33.04758435
Al      33.05743368      28.99329849      33.05283150
Al      35.07799962      31.03086244      33.05447819
Al      37.11032173      33.07246104      33.03866218
Al      39.10929451      35.07630194      33.04309478
Al      41.14399842      37.08975286      33.07615875
Al      31.01344817      24.94643299      35.07293000
Al      33.06369965      26.97461123      35.09274509
Al      35.06999220      29.00598936      35.07977493
Al      37.09133208      31.04021149      35.08851544
Al      39.11855212      33.06433418      35.05666980
Al      41.14739838      35.06588911      35.08102113
Al      43.17655179      37.09164801      35.08939228
Al      33.06683574      24.93542976      37.11624118
Al      35.08497902      27.00512359      37.10342976
Al      37.12293802      28.99869199      37.10296989
Al      39.12768593      31.02431385      37.11230241
Al      41.14050013      33.05545963      37.09942539
Al      43.17429488      35.07189721      37.08269828
Al      35.07366033      24.96457737      39.13337260
Al      37.10670226      26.96440451      39.13693241
Al      39.13062122      28.99504775      39.13809835
Al      41.16578781      31.02127769      39.13720915
Al      37.10467275      24.96540779      41.14411143
Al      39.12314765      26.99025319      41.15693462
Al      41.14837836      28.98007737      41.15899758
Al      39.13938806      24.96198166      43.16976293
Al      41.15001014      26.97743104      43.17300797
Al      20.90372406      26.97644257      26.98919924
Al      22.94733713      29.01190061      26.98677641
Al      24.95569129      31.04279978      26.97377063
Al      26.97845950      33.07059591      26.97856533
Al      29.00341732      35.10183246      26.96238778
Al      31.00858860      37.10943367      26.97997496
Al      33.06104672      39.13876273      26.97149082
Al      35.06035585      41.15628508      26.99307947
Al      37.11148408      43.19274055      26.97023835
Al      39.14980623      45.21450983      27.00193296
Al      22.92477108      26.95583376      29.01067532
Al      24.95580150      29.00796760      28.99567693
Al      26.99324726      31.02446754      29.01960588
Al      29.01064369      33.05476791      29.00654716
Al      31.02017514      35.08825214      28.99477142
Al      33.05578026      37.09914298      29.01161210
Al      35.06937970      39.13845136      28.99007004
Al      37.10169202      41.17300001      29.00640545
Al      39.12703751      43.19193127      28.99633209
Al      24.93889737      26.98885666      31.02649843
Al      26.97965750      29.00445084      31.03986659
Al      29.00527958      31.01445367      31.03976596
Al      31.02668413      33.04658531      31.03833735
Al      33.05722362      35.08324723      31.04604783
Al      35.09725977      37.09627388      31.03050821
Al      37.09973871      39.12604407      31.01913655
Al      39.14212715      41.15212180      31.02830931
Al      26.97884731      26.99817016      33.04639840
Al      29.01274531      29.01851384      33.06108067
Al      31.04109302      31.02319303      33.08131130
Al      33.06172943      33.05450244      33.06550961
Al      35.08203734      35.08268542      33.05328527
Al      37.09989376      37.09397596      33.05345546
Al      39.13889078      39.11583973      33.07550256
Al      29.00924558      26.98982149      35.08798480
Al      31.04051232      29.00671577      35.07441300
Al      33.07025915      31.01738538      35.08613799
Al      35.07860204      33.06597102      35.08197741
Al      37.09226334      35.07408685      35.08472800
Al      39.13943020      37.09921324      35.07810998
Al      41.14827733      39.11387747      35.07420452
Al      31.02731261      26.99523271      37.10817545
Al      33.05727939      28.99291480      37.10674752
Al      35.08129782      31.02515477      37.08611406
Al      37.08873925      33.03673540      37.11025829
Al      39.12011669      35.08046630      37.10737550
Al      41.14562093      37.11127854      37.11295779
Al      33.06138217      26.97871211      39.11910881
Al      35.07787592      29.01347319      39.11841386
Al      37.11615374      31.03408226      39.13371665
Al      39.13450272      33.05095801      39.12061813
Al      41.16979873      35.07023172      39.12362151
Al      35.10669294      26.96706071      41.13958658
Al      37.11271630      29.00468081      41.16008081
Al      39.12661518      31.02057640      41.16640890
Al      37.09977317      26.97544644      43.18324695
Al      39.13608432      29.01687328      43.18308347
Al      39.12303013      26.99925680      45.19466699
Al      20.90394985      29.00963438      29.00908496
Al      22.93407021      31.02343785      29.01282805
Al      24.96375751      33.05746074      28.99965710
Al      26.98516208      35.06862532      28.99744106
Al      29.00360728      37.10435811      29.00147615
Al      31.04147184      39.13639084      28.98609216
Al      33.04506725      41.15307223      29.00561370
Al      35.07911131      43.18373427      29.01093102
Al      37.11628508      45.21641123      29.01840139
Al      22.94288314      29.00896224      31.02628745
Al      24.94936085      31.05583965      31.03089628
Al      26.98758494      33.07292967      31.02925535
Al      29.01910337      35.07473477      31.03128804
Al      31.03114119      37.09463646      31.03319101
Al      33.04286628      39.10971744      31.01814937
Al      35.07686198      41.15667453      31.02273798
Al      37.10851806      43.17569368      31.02663956
Al      24.95164800      29.00468628      33.04445098
Al      26.98105655      31.03864288      33.05861174
Al      29.01157347      33.04117273      33.05238542
Al      31.03414903      35.08101788      33.07620694
Al      33.04223343      37.08979636      33.04425565
Al      35.08365406      39.13962001      33.04258613
Al      37.11262808      41.15959381      33.04695470
Al      26.98931783      28.99152778      35.07367345
Al      29.00967621      31.03951360      35.07105757
Al      31.03134777      33.04325336      35.07850331
Al      33.07144059      35.08816762      35.08334493
Al      35.07309036      37.10167624      35.08082169
Al      37.10352436      39.12813107      35.09056904
Al      39.12025066      41.16290899      35.10514731
Al      28.99409298      29.01038894      37.09347163
Al      31.01250472      31.03166469      37.11500834
Al      33.03853036      33.05549319      37.10505378
Al      35.07218796      35.05383727      37.10265927
Al      37.09681457      37.09377173      37.09498405
Al      39.13481113      39.11227718      37.09437968
Al      31.02824730      29.02228847      39.13042400
Al      33.05085680      31.01771656      39.14212745
Al      35.07982530      33.04962609      39.12437857
Al      37.11920129      35.07361404      39.13028518
Al      39.13012084      37.10407431      39.13706619
Al      33.04970432      28.99395201      41.14046075
Al      35.08834915      31.01439120      41.14787062
Al      37.10024063      33.06856382      41.16102323
Al      39.12603150      35.08727338      41.14403291
Al      35.08349983      28.99669352      43.18096788
Al      37.10704294      31.02259860      43.18446577
Al      37.12611084      29.01362041      45.21277605
Al      20.91707097      31.03957441      31.01556700
Al      22.92569377      33.05719068      31.03372825
Al      24.95455761      35.08940569      31.01609311
Al      26.98855115      37.09845920      31.02066421
Al      29.00427648      39.11228203      31.03526866
Al      31.03325328      41.18316893      31.03066030
Al      33.08754916      43.17480226      31.04731124
Al      35.06699036      45.20770530      31.01087651
Al      22.93891980      31.00592770      33.07008918
Al      24.93177590      33.05637147      33.06453046
Al      26.97526552      35.08849151      33.05426972
Al      28.99688766      37.09006913      33.05292081
Al      31.02497699      39.13097950      33.06783997
Al      33.05718251      41.15563280      33.04256017
Al      35.07828612      43.17971648      33.04398660
Al      24.95638322      31.02218556      35.09553669
Al      26.99593657      33.04357386      35.08740013
Al      28.98161221      35.09494279      35.09188680
Al      31.02720806      37.09958790      35.06874477
Al      33.07639893      39.12172904      35.08081945
Al      35.09559097      41.15114121      35.08439217
Al      37.11614484      43.17337671      35.08284560
Al      26.97547877      31.02332124      37.09847979
Al      29.00469902      33.06346430      37.11214481
Al      31.02578069      35.08318822      37.10320106
Al      33.04388710      37.09997760      37.11426419
Al      35.07815132      39.14391051      37.09863500
Al      37.10118733      41.14974710      37.10344538
Al      29.01013506      31.02088922      39.12986235
Al      31.03241278      33.05398976      39.13728741
Al      33.04833189      35.08212836      39.12766753
Al      35.07145704      37.10708832      39.12484487
Al      37.10142537      39.12436577      39.15374104
Al      31.01380428      31.01870463      41.15640577
Al      33.04369979      33.05546764      41.15770695
Al      35.07479641      35.08088106      41.14413344
Al      37.09919796      37.09767886      41.16730776
Al      33.05721074      31.03296780      43.18140022
Al      35.07182879      33.04647214      43.20491960
Al      37.09967347      35.08708562      43.18869917
Al      35.07086840      31.03035480      45.21358373
Al      20.90391297      33.06778527      33.05410774
Al      22.93220973      35.07180024      33.03623777
Al      24.94722468      37.11718834      33.04847990
Al      26.99031590      39.12984450      33.04161775
Al      29.00448450      41.16532578      33.05108557
Al      31.01578650      43.19135319      33.04750187
Al      33.04273123      45.19472655      33.04672903
Al      22.92163870      33.04125939      35.09846968
Al      24.94937680      35.06911454      35.07203720
Al      26.98588455      37.09848043      35.07334247
Al      29.00589467      39.13067962      35.10102009
Al      31.03857907      41.15602565      35.07385674
Al      33.05317886      43.18225866      35.06836342
Al      24.95565534      33.05231073      37.11072970
Al      26.97832642      35.08091139      37.10364470
Al      29.00638715      37.12218223      37.13256690
Al      31.02106539      39.11727280      37.08891301
Al      33.06826065      41.16854672      37.10055122
Al      35.08763396      43.18095060      37.10887677
Al      26.97685677      33.05334969      39.12397728
Al      29.00361551      35.06558321      39.13985538
Al      31.02482640      37.11798015      39.13576795
Al      33.05055358      39.12164926      39.11862984
Al      35.10498118      41.15612984      39.12856670
Al      29.00054514      33.03073768      41.17186218
Al      31.01912973      35.07142406      41.15267298
Al      33.04130145      37.07936144      41.13710578
Al      35.08181778      39.11857543      41.13977641
Al      31.03621267      33.05120173      43.19844533
Al      33.04830417      35.08731892      43.17181698
Al      35.08345620      37.10518071      43.19126930
Al      33.05988395      33.05840079      45.21104481
Al      20.90029812      35.08773544      35.09551144
Al      22.93199983      37.10792071      35.08622214
Al      24.95747566      39.12619365      35.08105366
Al      26.98373351      41.15499319      35.07312973
Al      28.98880315      43.16645804      35.09612756
Al      31.01891455      45.20514560      35.07904465
Al      22.92336536      35.06266106      37.08709650
Al      24.95331506      37.09483523      37.10563819
Al      26.97292684      39.12975627      37.10239367
Al      28.99402050      41.14479579      37.08294012
Al      31.02822417      43.17542970      37.11670108
Al      24.94609107      35.06308188      39.14016426
Al      26.98284488      37.10217360      39.13870521
Al      29.01520190      39.12865843      39.14029384
Al      31.02976517      41.15711223      39.12843604
Al      26.98596248      35.08807055      41.16305079
Al      28.98879221      37.11895665      41.15448132
Al      31.01536532      39.11983703      41.15696686
Al      28.99723226      35.07637999      43.20505258
Al      31.03389744      37.09597919      43.18861613
Al      31.01044838      35.06711421      45.22816162
Al      20.89722970      37.10718144      37.11107223
Al      22.93650012      39.11206442      37.09668057
Al      24.93414065      41.16523703      37.09954022
Al      26.98742682      43.18481518      37.09919980
Al      28.99883141      45.21265675      37.09519479
Al      22.94453575      37.11712850      39.14093222
Al      24.94423207      39.12430673      39.12912507
Al      26.97421093      41.15630950      39.13326919
Al      29.00415424      43.16627754      39.13260354
Al      24.94653092      37.07848965      41.16634838
Al      26.98652530      39.13141114      41.15026231
Al      29.00289888      41.17976819      41.15386249
Al      26.99690952      37.12310515      43.15563241
Al      29.00088693      39.14538735      43.17684096
Al      29.00860567      37.11358682      45.19335306
Al      20.90759283      39.11597315      39.13025708
Al      22.92528442      41.16700851      39.13522952
Al      24.95109042      43.16301313      39.10746484
Al      26.97278096      45.18300843      39.12992206
Al      22.93753249      39.14334206      41.16765573
Al      24.96620072      41.15277823      41.16392751
Al      26.98954534      43.18363021      41.16552632
Al      24.94387386      39.15362306      43.18335532
Al      26.98839314      41.15504474      43.17643144
Al      26.99361212      39.14130565      45.19232309
Al      20.91298139      41.14693402      41.15327699
Al      22.94203501      43.17274105      41.13696470
Al      22.95044165      41.16354576      43.16661702
