69
Lattice="136.52963154805488 0.0 0.0 0.0 136.52963154805488 0.0 0.0 0.0 136.52963154805488" Properties=species:S:1:pos:R:3:initial_magmoms:R:1 id=sample_001955 pbc="T T T"
Fe      66.26310282      66.26662611      66.26727134       2.30000000
Fe      67.70290388      67.68678653      64.84084273       2.30000000
Fe      69.15212662      69.14238308      63.39435038       2.30000000
Fe      70.55413830      70.56324198      61.98251806       2.30000000
Fe      72.03121834      72.00511713      60.53628076       2.30000000
Fe      73.41607922      73.42178502      59.10122140       2.30000000
Fe      67.70542274      64.83315452      67.69855592       2.30000000
Fe      69.14537154      66.28580588      66.27764235       2.30000000
Fe      70.55903145      67.69391651      64.83243094       2.30000000
Fe      72.00638435      69.14156175      63.41075155       2.30000000
Fe      73.43585950      70.58323510      61.98443978       2.30000000
Fe      69.12618676      63.40069225      69.14993519       2.30000000
Fe      70.58371398      64.84867560      67.70605493       2.30000000
Fe      71.99245617      66.27611420      66.28438457       2.30000000
Fe      73.42518842      67.72489890      64.84234919       2.30000000
Fe      70.55689477      61.97459119      70.58512276       2.30000000
Fe      72.01416092      63.41150461      69.15410977       2.30000000
Fe      73.42351559      64.82800425      67.69634642       2.30000000
Fe      74.86931223      66.27060220      66.25392842       2.30000000
Fe      72.00511259      60.54195544      71.99639976       2.30000000
Fe      73.43546761      61.95632896      70.56073894       2.30000000
Fe      73.42625633      59.11137483      73.42234027       2.30000000
Fe      64.83789395      67.71374900      67.67467652       2.30000000
Fe      66.25938562      69.14080148      66.24982730       2.30000000
Fe      67.69734313      70.56480820      64.83347937       2.30000000
Fe      69.13516802      72.01155942      63.40181579       2.30000000
Fe      70.56957665      73.43147753      61.97398407       2.30000000
Fe      66.26163684      66.25436324      69.15929571       2.30000000
Fe      67.68717818      67.70864026      67.69391270       2.30000000
Fe      69.13436794      69.14512824      66.28050843       2.30000000
Fe      70.58077415      70.57950713      64.84363110       2.30000000
Fe      72.00723521      71.98112452      63.40795260       2.30000000
Fe      67.69546674      64.84556474      70.55734061       2.30000000
Fe      69.12513675      66.25180652      69.14054110       2.30000000
Fe      70.57762107      67.72003216      67.71329844       2.30000000
Fe      71.98026775      69.13897163      66.27642852       2.30000000
Fe      69.13759462      63.40704336      72.01422479       2.30000000
Fe      70.56504932      64.84262155      70.56683150       2.30000000
Fe      71.99040812      66.26106885      69.13838811       2.30000000
Fe      70.56332558      61.95698663      73.43985915       2.30000000
Fe      72.01925074      63.42601738      72.00914126       2.30000000
Fe      63.42162162      69.14218480      69.12150719       2.30000000
Fe      64.82690194      70.58324872      67.71881923       2.30000000
Fe      66.28965078      71.99472049      66.27464841       2.30000000
Fe      67.70468361      73.44003869      64.83281185       2.30000000
Fe      64.80984585      67.70598796      70.54886786       2.30000000
Fe      66.25996010      69.15541705      69.13499672       2.30000000
Fe      67.70842220      70.56572661      67.71962216       2.30000000
Fe      69.13454237      72.01177007      66.27472672       2.30000000
Fe      66.28004308      66.26648912      72.00358730       2.30000000
Fe      67.69535448      67.70470754      70.57226867       2.30000000
Fe      69.14573778      69.13624565      69.14663412       2.30000000
Fe      67.73007554      64.83070669      73.44097330       2.30000000
Fe      69.12843066      66.26565311      72.01407709       2.30000000
Fe      61.96942151      70.56629907      70.57097676       2.30000000
Fe      63.40584876      72.01459340      69.13160445       2.30000000
Fe      64.83927508      73.43272377      67.71156486       2.30000000
Fe      66.26555988      74.86413740      66.26079204       2.30000000
Fe      63.40299081      69.14246278      72.01894786       2.30000000
Fe      64.82256766      70.56307923      70.56035463       2.30000000
Fe      66.24522534      72.00438853      69.14366377       2.30000000
Fe      64.84346182      67.71191050      73.44629272       2.30000000
Fe      66.26745683      69.13105685      71.98359524       2.30000000
Fe      66.25344871      66.26369124      74.85980088       2.30000000
Fe      60.52683149      72.01314600      71.99678401       2.30000000
Fe      61.96160387      73.42938577      70.58717762       2.30000000
Fe      61.96107715      70.56530482      73.42974158       2.30000000
Fe      63.40754022      71.99233567      71.99667497       2.30000000
Fe      59.10208859      73.42729058      73.42942294       2.30000000
