500
Lattice="22.428152186842706 0.0 0.0 0.0 24.267726469406952 0.0 0.0 0.0 20.57872618284644" Properties=species:S:1:pos:R:3 id=sample_001778 pbc="F F F"
Au      -0.00218773       0.00765156      -0.00366625
Au       0.00273132       2.44371788       2.03231814
Au       2.25900128       0.00658954       2.06413509
Au       2.23993494       2.41225197       0.00210456
Au      -0.00041296      -0.00115699       4.12331340
Au       0.00491025       2.41792094       6.17516572
Au       2.23883089      -0.01037818       6.18492878
Au       2.24271938       2.43180378       4.10469163
Au      -0.00932825      -0.00815310       8.21593294
Au      -0.02001514       2.40936076      10.29669467
Au       2.25154363       0.01783116      10.28949720
Au       2.24684935       2.43632260       8.24422404
Au      -0.01327431       0.00927928      12.35984798
Au       0.01651477       2.42855683      14.41105962
Au       2.21725486      -0.00108650      14.39904233
Au       2.22890996       2.41676947      12.34913696
Au       0.01538840       0.00771617      16.46791662
Au       0.01392469       2.41220201      18.52156275
Au       2.22807475      -0.01256252      18.53587294
Au       2.23940535       2.43746559      16.47365062
Au       0.01073912       4.85158762       0.00214279
Au       0.01671354       7.27808773       2.05277170
Au       2.24879025       4.85189961       2.06805216
Au       2.24540520       7.27044725      -0.00555502
Au       0.00210103       4.85253973       4.11804287
Au      -0.02106557       7.26316084       6.17432466
Au       2.25652178       4.85368627       6.15917548
Au       2.23849991       7.27323143       4.12690767
Au       0.00086271       4.86523056       8.21983723
Au       0.00180149       7.27351652      10.28732436
Au       2.24330082       4.86097181      10.31920743
Au       2.23832746       7.26446037       8.25102327
Au       0.00628659       4.85412967      12.35207272
Au       0.00247412       7.26903036      14.39391650
Au       2.23626572       4.83999991      14.41558290
Au       2.23978966       7.26476525      12.35069141
Au      -0.00305637       4.84572604      16.43926521
Au       0.00673711       7.27900824      18.52953424
Au       2.23395523       4.85330357      18.53607516
Au       2.23857744       7.26669399      16.45867000
Au       0.00251299       9.68631947      -0.00165822
Au      -0.00568447      12.12700920       2.06337979
Au       2.24769061       9.71607718       2.04365266
Au       2.25797744      12.13887807      -0.01527623
Au       0.00899761       9.72509648       4.11539387
Au      -0.01087956      12.13529289       6.17035781
Au       2.23615330       9.71291912       6.16020249
Au       2.24420945      12.14908652       4.11908171
Au       0.00839056       9.72550673       8.23769471
Au       0.00831781      12.13256382      10.29072932
Au       2.22956558       9.70295067      10.29240397
Au       2.23849042      12.12223422       8.22582026
Au      -0.00651675       9.69634092      12.34821085
Au       0.01232030      12.12990812      14.39871138
Au       2.24886672       9.69362241      14.40315288
Au       2.24495700      12.11930707      12.33324046
Au      -0.00863383       9.72006344      16.46730668
Au      -0.01084432      12.13797689      18.52459243
Au       2.23273352       9.71468936      18.52102994
Au       2.24430307      12.13222185      16.46934328
Au       0.01101266      14.56664887      -0.00759176
Au      -0.00643208      16.99104073       2.07741068
Au       2.24036605      14.56613304       2.05360431
Au       2.24095508      16.96725447      -0.01717876
Au       0.00112650      14.55823597       4.14143159
Au      -0.01245798      16.97624500       6.17773397
Au       2.25725927      14.56104439       6.17057842
Au       2.24945876      16.97673139       4.12231971
Au      -0.00129997      14.59277882       8.23666405
Au       0.00364910      16.98945025      10.28273632
Au       2.24204658      14.54692751      10.29780541
Au       2.23949653      16.98449188       8.23580813
Au       0.00848289      14.55437962      12.33032920
Au      -0.01402799      16.98776215      14.39669094
Au       2.24759606      14.55895027      14.40592630
Au       2.23650005      16.99907123      12.32852496
Au       0.00143652      14.55336918      16.47635538
Au       0.00800942      16.97338272      18.51754988
Au       2.23460013      14.55696638      18.51577548
Au       2.23249510      16.98040834      16.47247510
Au      -0.01090497      19.41576187      -0.00016335
Au       0.00542994      21.85474357       2.07523496
Au       2.24275349      19.42649331       2.04868278
Au       2.24237460      21.85340233      -0.00587097
Au       0.02865453      19.41502219       4.11516384
Au      -0.00784000      21.84748841       6.18091831
Au       2.24250843      19.42477937       6.18829254
Au       2.23598833      21.83524317       4.10990719
Au       0.00708217      19.42050486       8.23029218
Au       0.01153419      21.85285261      10.29735991
Au       2.26611236      19.40897912      10.29292009
Au       2.22792709      21.84523336       8.23206183
Au       0.00964330      19.42936966      12.35502670
Au      -0.02484336      21.85438713      14.39919043
Au       2.24721518      19.41317084      14.38663940
Au       2.25363627      21.84145672      12.32932268
Au      -0.00885738      19.42699827      16.47190437
Au       0.01120203      21.83871407      18.51980068
Au       2.26099782      19.42042272      18.50892026
Au       2.24706578      21.84832875      16.45434256
Au       4.49231117       0.01969889       0.00875944
Au       4.46192372       2.43554443       2.05772747
Au       6.73664232      -0.01710396       2.06965361
Au       6.74080775       2.42584205       0.00958930
Au       4.49250261      -0.00591322       4.12422671
Au       4.48584582       2.43234796       6.17244495
Au       6.72569664      -0.01048156       6.19611171
Au       6.71852377       2.44006805       4.11653052
Au       4.48174801      -0.01411580       8.22080444
Au       4.49022550       2.41988629      10.30329071
Au       6.73295066      -0.00574310      10.30238921
Au       6.71994808       2.43318596       8.25375301
Au       4.48065638      -0.01396653      12.35690579
Au       4.48567826       2.42734999      14.40031844
Au       6.73718927      -0.01346313      14.40418725
Au       6.73077375       2.42359415      12.36730606
Au       4.47731237       0.00964387      16.44998769
Au       4.48600770       2.41168272      18.50250796
Au       6.72262199       0.00291343      18.50873380
Au       6.71001057       2.43817462      16.46107579
Au       4.46524693       4.83121134      -0.01310701
Au       4.48331054       7.27544725       2.05820587
Au       6.73068413       4.85041534       2.04175586
Au       6.72775576       7.26530524      -0.00799651
Au       4.49427824       4.84679770       4.10171625
Au       4.47349993       7.28806192       6.18003335
Au       6.73567311       4.83031338       6.17597463
Au       6.73039407       7.27324697       4.10979335
Au       4.49883857       4.85805634       8.22761146
Au       4.48943903       7.27615507      10.28579962
Au       6.73602557       4.85887469      10.28997382
Au       6.74093612       7.27957367       8.23710677
Au       4.48464145       4.85158337      12.33358876
Au       4.48869569       7.27474700      14.40527877
Au       6.73879374       4.83994578      14.39442924
Au       6.73374771       7.28588107      12.34658647
Au       4.46780728       4.86610229      16.46462706
Au       4.47428198       7.26793888      18.53791255
Au       6.73278939       4.85682007      18.53353601
Au       6.75718319       7.29444075      16.45995937
Au       4.48992224       9.68931589       0.00176480
Au       4.48328534      12.14471133       2.04669514
Au       6.73631012       9.70372620       2.05261568
Au       6.72178791      12.14389315      -0.00925711
Au       4.49367916       9.71603960       4.11751016
Au       4.48856973      12.12358623       6.17513815
Au       6.72751747       9.71524982       6.17036662
Au       6.74450548      12.12080886       4.10688111
Au       4.47454593       9.71197561       8.23994716
Au       4.48601438      12.13810230      10.28156855
Au       6.72726303       9.68970003      10.29348329
Au       6.73382850      12.13283314       8.23262442
Au       4.47841916       9.70395817      12.35375719
Au       4.50068953      12.14028648      14.40706645
Au       6.70653702       9.69342311      14.44034303
Au       6.73146256      12.14543676      12.34394301
Au       4.48819211       9.70707981      16.45275894
Au       4.49720342      12.15399049      18.53286545
Au       6.73053944       9.70412431      18.50753349
Au       6.71170074      12.14235608      16.46471683
Au       4.49442383      14.56944834      -0.01157044
Au       4.47887707      16.98943922       2.06699332
Au       6.73041113      14.56402946       2.06241627
Au       6.73490929      16.99105885      -0.00139029
Au       4.48924134      14.55917573       4.12413427
Au       4.49117869      16.99522246       6.17848461
Au       6.71481301      14.56706523       6.16591815
Au       6.72947441      16.97611428       4.12086620
Au       4.48044725      14.57294164       8.23256494
Au       4.47434498      16.99325190      10.29208013
Au       6.71926134      14.55059853      10.29755111
Au       6.72997451      16.99564042       8.23386720
Au       4.48539056      14.58236618      12.35140284
Au       4.48690728      16.98276435      14.41101361
Au       6.74017284      14.56188271      14.40330315
Au       6.72302951      17.00540346      12.35289615
Au       4.47715587      14.56640589      16.46689772
Au       4.49130148      16.97559166      18.52367684
Au       6.72134242      14.55000376      18.52108609
Au       6.73295678      16.99382723      16.47534141
Au       4.50304256      19.42933400       0.01139701
Au       4.47710788      21.83213649       2.07990878
Au       6.71770048      19.41139307       2.05747098
Au       6.72395320      21.84088307      -0.00773824
Au       4.49535809      19.42120680       4.11810338
Au       4.48623358      21.85731198       6.17961885
Au       6.73303505      19.39088890       6.18044661
Au       6.73031721      21.83506338       4.12829843
Au       4.47933021      19.41462646       8.23034458
Au       4.49508108      21.82661569      10.29282402
Au       6.71525760      19.42204886      10.28547800
Au       6.73138237      21.84665631       8.24055508
Au       4.48049461      19.40823793      12.33671994
Au       4.48296301      21.83245419      14.40604247
Au       6.73105558      19.40132431      14.40713263
Au       6.72796602      21.82948419      12.34141364
Au       4.48046542      19.41458444      16.45862895
Au       4.48483777      21.84390686      18.51576930
Au       6.73058374      19.42192802      18.52438587
Au       6.71860616      21.83987199      16.46511176
Au       8.95919868       0.01194746       0.00185180
Au       8.96794743       2.42389539       2.05074875
Au      11.21156801       0.01122910       2.05419876
Au      11.21986716       2.43419449      -0.01246252
Au       8.96682815       0.00708592       4.11255273
Au       8.97050676       2.41433042       6.17120068
Au      11.20955007      -0.00957525       6.18212384
Au      11.21338591       2.42308267       4.12956421
Au       8.96081676       0.00699314       8.22427538
Au       8.97822913       2.42847065      10.30180643
Au      11.21791937      -0.00225346      10.30205156
Au      11.21647885       2.43488720       8.23641400
Au       8.97391405      -0.00452957      12.35165620
Au       8.98124158       2.42942008      14.40538627
Au      11.22774418       0.00263883      14.40272692
Au      11.21273454       2.41891740      12.34727635
Au       8.97699367       0.00017009      16.45039791
Au       8.97149338       2.41719072      18.51326027
Au      11.20013800       0.00375583      18.51977480
Au      11.20596564       2.44326362      16.43949784
Au       8.96180538       4.87062128      -0.00726324
Au       8.95397086       7.29394144       2.05315805
Au      11.21840305       4.85291110       2.05676592
Au      11.21018462       7.28234270      -0.00642095
Au       8.95788189       4.85404764       4.12231319
Au       8.96791009       7.28064129       6.18118799
Au      11.20446543       4.86975756       6.17034597
Au      11.22467319       7.28798221       4.11810751
Au       8.98249760       4.85156928       8.22090509
Au       8.97833303       7.27514627      10.29526521
Au      11.19842506       4.87190400      10.27441109
Au      11.21699133       7.26328453       8.22943562
Au       8.99082642       4.83586762      12.34369460
Au       8.97709431       7.27504263      14.38714094
Au      11.22411893       4.86433935      14.40857984
Au      11.20888600       7.28831465      12.34982967
Au       8.96984911       4.86057128      16.46544266
Au       8.96818330       7.26643753      18.53050808
Au      11.22322623       4.86543187      18.50991891
Au      11.20157619       7.26625372      16.46584356
Au       8.98100781       9.71100177      -0.01236586
Au       8.97057970      12.12712263       2.07160926
Au      11.20084155       9.69458963       2.06672454
Au      11.20997370      12.13736741      -0.01400353
Au       8.98122347       9.71689041       4.11248069
Au       8.97196035      12.12354263       6.19022072
Au      11.21672857       9.70582045       6.16668469
Au      11.21390999      12.13410661       4.11681048
Au       8.96839640       9.70165367       8.23769726
Au       8.95256664      12.13624222      10.27684502
Au      11.22571868       9.71320493      10.27790499
Au      11.23361958      12.13367578       8.22994967
Au       8.97591265       9.72139898      12.34464341
Au       8.96499371      12.14181008      14.40526651
Au      11.22462655       9.71975926      14.40539010
Au      11.21205879      12.13452371      12.34696559
Au       8.96940454       9.70761911      16.45052384
Au       8.96983230      12.13278954      18.52243383
Au      11.21144470       9.70889019      18.52655314
Au      11.20781926      12.15356715      16.47655590
Au       8.95940161      14.54645207      -0.01631881
Au       8.98329039      16.95804194       2.04430976
Au      11.21460267      14.55308643       2.05466663
Au      11.20853231      16.99167106       0.00719846
Au       8.97184087      14.56207542       4.13572397
Au       8.96673698      16.98920971       6.16967936
Au      11.20044828      14.57274990       6.16478446
Au      11.22549968      16.97863800       4.11086202
Au       8.97229239      14.55822538       8.21873425
Au       8.97609436      16.98762341      10.29519879
Au      11.21219949      14.56366224      10.29175621
Au      11.20101726      16.99481970       8.22231518
Au       8.96067614      14.55944145      12.35106862
Au       8.97015672      16.97139850      14.41779142
Au      11.20817280      14.56466887      14.41094551
Au      11.21343817      16.98588743      12.34273588
Au       8.95898257      14.57382368      16.45665444
Au       8.95985982      17.00566495      18.51237477
Au      11.22700756      14.56456683      18.50145058
Au      11.19138555      16.98719814      16.47829641
Au       8.97524637      19.40826102      -0.00355453
Au       8.96814638      21.84341167       2.04369125
Au      11.21278144      19.41956239       2.04021204
Au      11.21461679      21.83491258      -0.01116764
Au       8.96393763      19.41189494       4.12207755
Au       8.98613704      21.83019758       6.17810475
Au      11.20886753      19.41484608       6.17396243
Au      11.21492523      21.84110857       4.10468374
Au       8.97594899      19.41723675       8.22452039
Au       8.97103731      21.84071329      10.27337621
Au      11.21015525      19.42549405      10.28631494
Au      11.22407298      21.85449546       8.23343188
Au       8.98104793      19.40423175      12.34412946
Au       8.96943635      21.84224957      14.40496976
Au      11.21692919      19.42048197      14.42015111
Au      11.18143523      21.84380481      12.35275708
Au       8.97234264      19.41039350      16.47191323
Au       8.96821393      21.82620095      18.53480563
Au      11.20232627      19.40837886      18.53046877
Au      11.19932279      21.83362425      16.46382132
Au      13.46901439      -0.01046145       0.00342877
Au      13.46909964       2.41023441       2.06557349
Au      15.69253077      -0.00410485       2.03604129
Au      15.71554546       2.42689588      -0.00066720
Au      13.46121183       0.00114317       4.10861362
Au      13.45997277       2.43087649       6.17495774
Au      15.71415124      -0.01216609       6.16744061
Au      15.69673986       2.42229460       4.12463675
Au      13.46559002       0.00996049       8.24282066
Au      13.47191517       2.44251665      10.28169499
Au      15.71601546      -0.00438010      10.26959273
Au      15.69870241       2.42924867       8.22852293
Au      13.45981206      -0.00316244      12.34709689
Au      13.45935245       2.42491340      14.40111804
Au      15.70405845       0.01353291      14.39719309
Au      15.69637464       2.41731436      12.34982677
Au      13.45544822      -0.00518553      16.44944866
Au      13.44692745       2.40830631      18.54318720
Au      15.70904561      -0.00833933      18.53816333
Au      15.70378326       2.44420089      16.46472891
Au      13.45517798       4.84167590       0.01564628
Au      13.45227285       7.27535669       2.05341515
Au      15.70805022       4.87218979       2.06689003
Au      15.70744595       7.27037630      -0.00254216
Au      13.47321518       4.84429148       4.11513989
Au      13.44621276       7.27352362       6.16386412
Au      15.70217768       4.84018225       6.17093697
Au      15.70966404       7.29027004       4.11081353
Au      13.44973735       4.85063342       8.23924967
Au      13.45090229       7.29243270      10.28011014
Au      15.71165826       4.85363761      10.29408882
Au      15.70454105       7.27553903       8.24917204
Au      13.46658717       4.84749381      12.35771575
Au      13.44479160       7.27315562      14.40195503
Au      15.69222868       4.86521721      14.40607082
Au      15.69278576       7.27083094      12.35528166
Au      13.44689656       4.84989603      16.45027295
Au      13.46216602       7.28665126      18.52582680
Au      15.71021263       4.84980383      18.49821490
Au      15.68248589       7.28833444      16.45897229
Au      13.45038607       9.69994731      -0.00190418
Au      13.45044177      12.13021016       2.06041022
Au      15.69246568       9.72885734       2.04880157
Au      15.68951846      12.12818651      -0.00706800
Au      13.45128147       9.69511334       4.11855767
Au      13.44088640      12.15338326       6.16207689
Au      15.71274340       9.72271848       6.15652871
Au      15.70888258      12.13524115       4.13206237
Au      13.44864535       9.70660423       8.23822862
Au      13.44569594      12.10718420      10.29437771
Au      15.67501596       9.69224104      10.28632036
Au      15.69475326      12.15197650       8.22551821
Au      13.45615233       9.73583973      12.32725077
Au      13.45967853      12.13969239      14.40547018
Au      15.67682406       9.70561354      14.40945409
Au      15.70049013      12.13423134      12.33631913
Au      13.46226889       9.70344669      16.46030564
Au      13.45741530      12.13051908      18.51642507
Au      15.68432729       9.70299153      18.51920779
Au      15.69348997      12.13108970      16.46217488
Au      13.46021826      14.55855948       0.01420952
Au      13.44605453      16.99629126       2.06079032
Au      15.69084792      14.55164622       2.04649849
Au      15.70117796      16.97351853       0.01855777
Au      13.45721777      14.56109803       4.12078080
Au      13.46399395      16.98981218       6.18167029
Au      15.69888299      14.55551815       6.16997684
Au      15.70678737      16.97527402       4.11974902
Au      13.45202858      14.57059625       8.22102027
Au      13.45904471      16.98832563      10.28754452
Au      15.69292965      14.55393044      10.27765185
Au      15.70319484      16.98437619       8.23979018
Au      13.47749236      14.54419721      12.35491815
Au      13.45250616      16.99070597      14.41053698
Au      15.69781513      14.54177485      14.41340675
Au      15.69451438      16.98613536      12.34528719
Au      13.45152376      14.53590666      16.47118311
Au      13.44508609      16.98726694      18.52181857
Au      15.70655420      14.55860862      18.52417026
Au      15.69281378      17.00930341      16.46387767
Au      13.47471686      19.41072541       0.01295888
Au      13.45930141      21.84157133       2.07066154
Au      15.69101458      19.39631890       2.06919527
Au      15.69259624      21.84097998      -0.00747382
Au      13.44919109      19.42428816       4.13575374
Au      13.46692077      21.83146293       6.15348794
Au      15.68935097      19.40352385       6.17800826
Au      15.71066901      21.84279492       4.12673076
Au      13.47035483      19.41029848       8.25153359
Au      13.46812912      21.84876161      10.31115511
Au      15.69488286      19.40553210      10.27677758
Au      15.70121420      21.83555508       8.24181015
Au      13.46510217      19.39632711      12.34050477
Au      13.45560815      21.85509524      14.40172064
Au      15.69831487      19.41515515      14.39541894
Au      15.70654099      21.83865376      12.34579734
Au      13.45501249      19.40777963      16.46661266
Au      13.45759255      21.84092797      18.52515738
Au      15.68981654      19.39581478      18.52613136
Au      15.68525968      21.83022533      16.46967109
Au      17.93606476       0.01366893       0.00315763
Au      17.94191318       2.44839426       2.04825354
Au      20.18605982      -0.01459707       2.05329628
Au      20.19128742       2.43541739       0.00943089
Au      17.94345873       0.01279972       4.10585350
Au      17.93984090       2.40545545       6.17875726
Au      20.18725723       0.00526388       6.19226649
Au      20.19121233       2.43586025       4.10433411
Au      17.94988548       0.00456987       8.21039262
Au      17.96995992       2.43452208      10.27204431
Au      20.19429397      -0.00701425      10.29605439
Au      20.18543828       2.42190835       8.24086519
Au      17.93718925       0.00647764      12.33288529
Au      17.94797352       2.41739146      14.39750411
Au      20.19596054      -0.00182765      14.43418836
Au      20.17828068       2.39928685      12.33350117
Au      17.95440693      -0.01789186      16.46368569
Au      17.94507119       2.41975120      18.51779280
Au      20.17404008       0.00494435      18.52513008
Au      20.17501938       2.41974378      16.47180430
Au      17.93272937       4.85527464       0.00632918
Au      17.96277603       7.28728273       2.05623445
Au      20.19429162       4.85639051       2.03624149
Au      20.18355816       7.27256932      -0.00207010
Au      17.94243180       4.86582932       4.11521518
Au      17.93696481       7.29945077       6.18240282
Au      20.17328874       4.85848428       6.15317590
Au      20.17075987       7.27427914       4.11087115
Au      17.95152641       4.86080077       8.24781037
Au      17.95185194       7.28767192      10.28353384
Au      20.17919984       4.84882805      10.30483666
Au      20.17943264       7.27454636       8.23523733
Au      17.93493450       4.86924421      12.33529169
Au      17.93919687       7.28782414      14.39224000
Au      20.20543009       4.85568733      14.40364974
Au      20.21057975       7.28223490      12.35262297
Au      17.94475944       4.84741915      16.46636769
Au      17.94212735       7.27173181      18.50139381
Au      20.18234140       4.85824381      18.52154984
Au      20.19600452       7.29525162      16.45037010
Au      17.94981875       9.71955513       0.00648240
Au      17.93496878      12.12741588       2.05041204
Au      20.19352483       9.70899267       2.05598104
Au      20.20045456      12.14387083       0.00502138
Au      17.93176888       9.71616932       4.11687217
Au      17.93462493      12.13777975       6.18855507
Au      20.16886483       9.69833025       6.15760226
Au      20.17194050      12.14668521       4.11680999
Au      17.93314062       9.70208177       8.24028297
Au      17.93807606      12.14550426      10.29508308
Au      20.18938909       9.70854848      10.28235147
Au      20.18751539      12.14653053       8.23024823
Au      17.92723367       9.70842183      12.34452615
Au      17.96736137      12.13151356      14.42803302
Au      20.18460756       9.69393311      14.41131455
Au      20.18461726      12.13150107      12.34783679
Au      17.95206377       9.69330360      16.46416467
Au      17.94945134      12.14774344      18.52928326
Au      20.16349774       9.69940876      18.51535010
Au      20.19054662      12.13455330      16.45812184
Au      17.93828682      14.55377741       0.00320762
Au      17.93410369      17.00222286       2.05538072
Au      20.18018783      14.57060699       2.04718771
Au      20.18193294      16.96587051      -0.00691554
Au      17.93658818      14.55862891       4.13167401
Au      17.92520960      16.98385780       6.16242702
Au      20.17337812      14.55652084       6.15657856
Au      20.19575083      16.98841820       4.11680952
Au      17.95514467      14.56894653       8.23678014
Au      17.94869711      16.97615511      10.29162823
Au      20.18290781      14.54165287      10.28755892
Au      20.18709395      16.97857171       8.21462947
Au      17.94738260      14.55745803      12.32693168
Au      17.93958001      16.98051356      14.40009820
Au      20.21328391      14.57277702      14.41209661
Au      20.19065760      16.99324015      12.34287744
Au      17.95033399      14.53480036      16.46897648
Au      17.94470879      16.97950516      18.52005443
Au      20.20252121      14.55841773      18.51242341
Au      20.18031168      16.99272293      16.47687826
Au      17.94058227      19.42669516       0.00679499
Au      17.93331186      21.83793170       2.05875842
Au      20.17759546      19.43569348       2.05133051
Au      20.17675542      21.83483468       0.00958905
Au      17.95164513      19.40701851       4.11630363
Au      17.94160733      21.85724783       6.17703131
Au      20.17010576      19.42915084       6.15126882
Au      20.19397532      21.82911949       4.11036388
Au      17.93127093      19.41856722       8.23848018
Au      17.95383882      21.82354963      10.29367459
Au      20.16918296      19.40927864      10.30117290
Au      20.19252430      21.85146878       8.22472633
Au      17.95254701      19.41475408      12.35532774
Au      17.95271622      21.83291701      14.39374112
Au      20.20650650      19.41429781      14.40346411
Au      20.18457125      21.84289867      12.35123420
Au      17.93655619      19.41859016      16.46511398
Au      17.94976885      21.83853496      18.52233967
Au      20.20076073      19.42021445      18.50225775
Au      20.18164371      21.84613865      16.48397260
