256
Lattice="19.57628711023881 0.0 0.0 0.0 27.224678734167686 0.0 0.0 0.0 21.41488336026217" Properties=species:S:1:pos:R:3 id=sample_001829 pbc="F F F"
Si      -0.00148083       0.01798121      -0.00490378
Si       0.00363292       3.40927867       2.66380962
Si       2.43797337      -0.00823047       2.66583933
Si       2.46932540       3.41870924       0.01330695
Si       0.02723628       0.00244125       5.36494174
Si      -0.01190437       3.43283347       8.01764296
Si       2.45962090       0.01751601       8.01470703
Si       2.47617173       3.40697732       5.35989588
Si       0.01046731       0.01764462      10.74605632
Si      -0.00080298       3.39219301      13.41743444
Si       2.45272744      -0.01003579      13.39271786
Si       2.44025011       3.40235393      10.70091497
Si       0.01601291      -0.00687693      16.04842532
Si      -0.02150530       3.39470197      18.74541382
Si       2.45019733       0.00614119      18.73591637
Si       2.46312328       3.40887884      16.05685096
Si      -0.00947747       6.82904409      -0.03400401
Si       0.03772639      10.21994421       2.68373778
Si       2.44690936       6.80031159       2.65461754
Si       2.43643441      10.19831598      -0.03966930
Si       0.00978363       6.82699309       5.38325025
Si      -0.00657499      10.17008658       8.01246815
Si       2.46691897       6.76271149       8.01900126
Si       2.43152108      10.25348052       5.37578719
Si      -0.00421418       6.83877719      10.72759897
Si       0.01714616      10.19684459      13.40891922
Si       2.45239613       6.80881466      13.38781846
Si       2.43571632      10.18141190      10.71761869
Si       0.00812429       6.80680625      16.04884906
Si      -0.01157844      10.18935061      18.75146038
Si       2.45353214       6.81709567      18.74821427
Si       2.48411864      10.21827530      16.07260857
Si      -0.01444234      13.61057699      -0.00267622
Si      -0.00514494      17.02694046       2.66861316
Si       2.43618888      13.60723098       2.65631807
Si       2.46862986      17.03697497      -0.00101838
Si       0.02570741      13.61723154       5.38936588
Si       0.01459266      17.00754951       8.03880795
Si       2.42940434      13.62035743       8.04693625
Si       2.45411712      17.02754536       5.33862074
Si       0.01846716      13.59258865      10.71547003
Si       0.01676957      17.05152139      13.39620504
Si       2.43293045      13.59710660      13.38209964
Si       2.42220413      17.03645517      10.72627516
Si      -0.03271877      13.60827939      16.04628276
Si       0.02560756      17.01393098      18.72206255
Si       2.44748151      13.59582248      18.74037305
Si       2.42880093      17.03307286      16.10053247
Si       0.00526602      20.40249206       0.00567272
Si      -0.02702038      23.80957785       2.67936291
Si       2.40501201      20.42226181       2.70263440
Si       2.43166673      23.84008733       0.00405792
Si      -0.00479720      20.42571694       5.34559776
Si       0.00334911      23.80026599       7.99945302
Si       2.44078457      20.41555186       8.02598327
Si       2.44190789      23.84231956       5.34661296
Si      -0.01028496      20.39664404      10.72831259
Si       0.00836903      23.82290449      13.41674850
Si       2.44922521      20.46157730      13.37286467
Si       2.43612028      23.80287552      10.67881290
Si      -0.01776374      20.43184416      16.06825161
Si      -0.01089114      23.80302145      18.76607928
Si       2.43851793      20.44273259      18.71572654
Si       2.46237513      23.82424750      16.06820092
Si       4.88385133       0.01693271      -0.00568517
Si       4.89872607       3.41758081       2.68339980
Si       7.34939366      -0.00015955       2.70412737
Si       7.31376973       3.40176323      -0.01836010
Si       4.88729234       0.01228557       5.33053033
Si       4.90051839       3.36318877       8.04400593
Si       7.32517818       0.03080024       8.05696306
Si       7.32371109       3.41626634       5.35064855
Si       4.87467964      -0.02776798      10.71272055
Si       4.87517875       3.40824054      13.35416608
Si       7.36651910       0.01028438      13.38828398
Si       7.36636424       3.38225564      10.69517723
Si       4.89843275       0.00069633      16.06509074
Si       4.89813983       3.43640223      18.72639546
Si       7.33971802      -0.03195576      18.72212423
Si       7.34810969       3.39266659      16.09475952
Si       4.90747212       6.84210406       0.01283848
Si       4.88129779      10.21157123       2.67388547
Si       7.31729240       6.81985872       2.68086701
Si       7.34189945      10.21713310       0.00259175
Si       4.90859557       6.79602592       5.33890815
Si       4.88881347      10.22738654       8.03705413
Si       7.33835789       6.79665740       8.01882630
Si       7.35470168      10.17745439       5.33846963
Si       4.90304327       6.80935932      10.70505358
Si       4.90242780      10.20373750      13.40544773
Si       7.32681887       6.78703780      13.37522505
Si       7.36298155      10.19424258      10.71541559
Si       4.87715334       6.78883486      16.07731705
Si       4.87932285      10.15302027      18.74992692
Si       7.30026779       6.81225057      18.72324263
Si       7.32767987      10.22914352      16.05738823
Si       4.88538151      13.61870639       0.00000733
Si       4.89351862      16.99798082       2.67884722
Si       7.35016582      13.59289351       2.71162045
Si       7.35066669      17.04666277      -0.03372317
Si       4.88560971      13.58466598       5.35664878
Si       4.91000943      16.97779906       8.03639398
Si       7.36026615      13.63675935       8.04433089
Si       7.33237340      17.00886547       5.37069247
Si       4.90291276      13.56353976      10.73200582
Si       4.90287042      17.00669367      13.37114614
Si       7.32121646      13.59828547      13.39874613
Si       7.33328871      17.03979313      10.69164835
Si       4.86889302      13.59993658      16.06141968
Si       4.89623032      17.00482081      18.75158957
Si       7.35491733      13.61887769      18.72859514
Si       7.33576419      16.99308974      16.09798867
Si       4.90893985      20.42670012      -0.01418554
Si       4.91615488      23.82936858       2.62971225
Si       7.31845887      20.45569516       2.68375215
Si       7.32786405      23.77560132      -0.00494411
Si       4.91709171      20.44426868       5.36373576
Si       4.88374456      23.81669134       8.00410279
Si       7.35930378      20.38650781       8.02741121
Si       7.35106465      23.80535165       5.36182458
Si       4.90698245      20.41705264      10.72949025
Si       4.91142112      23.82120961      13.38742480
Si       7.36864021      20.40905810      13.40536138
Si       7.36495736      23.84947273      10.73977440
Si       4.85600632      20.40999643      16.08296141
Si       4.87647892      23.85171735      18.74745070
Si       7.35275402      20.42500267      18.75062413
Si       7.33475898      23.83490353      16.04111051
Si       9.79582848       0.02903408       0.02464182
Si       9.82266120       3.40184197       2.69313700
Si      12.20826211      -0.00268555       2.66551073
Si      12.24609557       3.40357103       0.00934900
Si       9.75215094      -0.00060029       5.35509493
Si       9.80081136       3.40556751       8.03908866
Si      12.22401110      -0.01768219       8.01454798
Si      12.20220361       3.41435232       5.34257723
Si       9.75614127       0.00280050      10.68305984
Si       9.78501847       3.38051391      13.38241245
Si      12.22458206       0.00616171      13.38682697
Si      12.21406496       3.40130322      10.72291911
Si       9.80081741      -0.03565051      16.05100647
Si       9.77806902       3.38689087      18.70954486
Si      12.22910102      -0.01257939      18.72628418
Si      12.23875225       3.38715763      16.05124665
Si       9.78861127       6.80788563      -0.00322133
Si       9.76825380      10.18016806       2.65829084
Si      12.23780475       6.78164147       2.65884582
Si      12.21680539      10.18330003       0.00346811
Si       9.79704562       6.79309511       5.36973419
Si       9.77721542      10.17465081       8.04458266
Si      12.21504461       6.79819399       8.04665351
Si      12.22299905      10.22374938       5.37633059
Si       9.79869959       6.80242713      10.70846120
Si       9.79155537      10.19459380      13.36310854
Si      12.24360510       6.84232439      13.37983852
Si      12.24988700      10.21368600      10.71145567
Si       9.77324380       6.79718580      16.06864145
Si       9.78622228      10.20868563      18.75950994
Si      12.24030809       6.77644055      18.73942096
Si      12.25127182      10.21424321      16.07399267
Si       9.78566280      13.60202089       0.01643529
Si       9.79267145      17.03547777       2.67066820
Si      12.26430816      13.60478831       2.71470754
Si      12.24837030      17.03009212      -0.00098378
Si       9.79236993      13.58613528       5.34977064
Si       9.79070473      16.99270369       8.02334931
Si      12.23406292      13.62208230       8.01274619
Si      12.21861813      17.02522586       5.33184714
Si       9.79234995      13.62451714      10.71820159
Si       9.77344853      17.02563789      13.39009701
Si      12.25368155      13.59191059      13.39615621
Si      12.21596516      17.01972521      10.72144232
Si       9.77610321      13.61678907      16.04582648
Si       9.78200425      17.02874455      18.73924556
Si      12.24402886      13.61882326      18.72413656
Si      12.24033575      17.02255563      16.07323368
Si       9.79952286      20.42605165      -0.00192324
Si       9.77705291      23.81859540       2.70278208
Si      12.24789960      20.37057996       2.66128938
Si      12.24344104      23.81840445       0.00417054
Si       9.80180464      20.41214759       5.38111049
Si       9.80605275      23.82339977       8.03306661
Si      12.24955212      20.39901317       8.01102077
Si      12.24194952      23.82041501       5.34626104
Si       9.77686803      20.40438939      10.73328571
Si       9.77947568      23.82499357      13.36820251
Si      12.22684222      20.40405137      13.42106960
Si      12.26076189      23.80748173      10.71581135
Si       9.79990136      20.42726223      16.04395827
Si       9.79483281      23.83630953      18.71345866
Si      12.22940307      20.40049566      18.72933692
Si      12.24080202      23.83464633      16.05831756
Si      14.70749710       0.01335156      -0.00049420
Si      14.68220118       3.40268051       2.66424025
Si      17.14809067      -0.02717437       2.69269048
Si      17.13340568       3.38890773      -0.01015036
Si      14.67403321      -0.02450875       5.36555527
Si      14.67576448       3.40201286       8.05625827
Si      17.10160393      -0.00012331       8.01976426
Si      17.08804546       3.39261061       5.35104029
Si      14.67164299       0.00888323      10.70873071
Si      14.71114686       3.36383094      13.39391672
Si      17.11039743      -0.00620233      13.40488861
Si      17.12352513       3.39549215      10.71475579
Si      14.70385633       0.02981905      16.06334905
Si      14.69366412       3.40409570      18.70192722
Si      17.17289183       0.01725203      18.72781234
Si      17.10345324       3.40347233      16.08313772
Si      14.65428998       6.82722226      -0.02802875
Si      14.66103372      10.21120924       2.66632233
Si      17.12610549       6.81458603       2.66243167
Si      17.14265188      10.20342276       0.00097746
Si      14.68106142       6.79157338       5.36283144
Si      14.70347740      10.20161830       8.03469639
Si      17.13047690       6.82899588       8.02627929
Si      17.15368833      10.22193310       5.35843256
Si      14.67708729       6.80981360      10.69046327
Si      14.67933964      10.23123959      13.39029287
Si      17.14111168       6.80021552      13.39051921
Si      17.15610349      10.19584854      10.71361732
Si      14.71977370       6.81575178      16.05357897
Si      14.70441795      10.20359737      18.73351475
Si      17.14651268       6.79311206      18.76759479
Si      17.12325177      10.22750843      16.05036970
Si      14.69827487      13.60272351      -0.02186895
Si      14.66975293      16.99120797       2.66813880
Si      17.14631535      13.60563486       2.68156070
Si      17.11678543      17.02297273      -0.01282915
Si      14.67447235      13.63163805       5.35825613
Si      14.69916672      17.03846752       8.06511745
Si      17.15848399      13.62476243       8.04270803
Si      17.13492175      17.01350228       5.38480132
Si      14.68969617      13.62496915      10.67992050
Si      14.70038586      16.99245940      13.39183928
Si      17.14397515      13.62385702      13.38502901
Si      17.13034196      17.00537433      10.70217380
Si      14.66076685      13.62419910      16.07764880
Si      14.68081533      17.02323708      18.74801317
Si      17.13777570      13.60967461      18.73065789
Si      17.12079694      17.01142044      16.05896358
Si      14.65732328      20.44943343      -0.00898775
Si      14.68755825      23.83132466       2.65755040
Si      17.11200598      20.41958721       2.66744983
Si      17.14233015      23.82121673       0.02298216
Si      14.67847158      20.40156915       5.35220874
Si      14.67474795      23.80924152       8.01102747
Si      17.10644588      20.45062287       8.00263435
Si      17.15590667      23.80648897       5.37594053
Si      14.66915204      20.41414703      10.73011113
Si      14.68632116      23.80718111      13.36602306
Si      17.15296462      20.40708950      13.39142264
Si      17.12759079      23.81781853      10.73794299
Si      14.70829397      20.41898940      16.05068564
Si      14.70507553      23.80836244      18.73311105
Si      17.12413657      20.42102117      18.74032906
Si      17.15352345      23.81444485      16.06549922
