256
Lattice="12.353251486860298 0.0 0.0 0.0 13.493531370804815 0.0 0.0 0.0 14.104345705309349" Properties=species:S:1:pos:R:3 id=sample_001441 pbc="F F F"
Fe      -0.00907701      -0.00072220      -0.00847134
Fe      -0.00459766       1.68825068       1.75644546
Fe       1.53024854      -0.00343486       1.77139908
Fe       1.54357752       1.67626365      -0.00154287
Fe       0.00322240       0.00970685       3.52228708
Fe      -0.01124941       1.71192583       5.29719163
Fe       1.54539333       0.00888115       5.28960989
Fe       1.53638871       1.67404315       3.52045714
Fe      -0.00712723       0.00686099       7.04031806
Fe      -0.00510458       1.67666613       8.80994253
Fe       1.53833136      -0.00562642       8.80596814
Fe       1.53571648       1.69365429       7.03441077
Fe      -0.01451178      -0.01383449      10.56603580
Fe       0.00394931       1.68293583      12.34533760
Fe       1.54418663      -0.00063458      12.34813335
Fe       1.54545953       1.68285869      10.57609608
Fe       0.00638292       3.38366574       0.00206263
Fe      -0.00496985       5.06496262       1.75600854
Fe       1.53467687       3.37023707       1.76066123
Fe       1.55231108       5.05574936       0.00381552
Fe       0.02848427       3.38996850       3.53748143
Fe      -0.01196803       5.07260226       5.27900371
Fe       1.53621038       3.37846341       5.29810634
Fe       1.55440047       5.04603391       3.52138791
Fe       0.01397857       3.39025873       7.04895878
Fe       0.00295568       5.06268017       8.81627827
Fe       1.54748138       3.39397702       8.79869102
Fe       1.54196555       5.06284222       7.05937969
Fe       0.00653416       3.36967116      10.58266642
Fe      -0.00203923       5.07541038      12.33429716
Fe       1.53636841       3.37250347      12.33768414
Fe       1.52354173       5.04781314      10.56499799
Fe      -0.00776684       6.74355590       0.01410714
Fe       0.01014893       8.44739514       1.76272154
Fe       1.53176820       6.74330054       1.76233697
Fe       1.55249805       8.43509188      -0.00992691
Fe       0.01839544       6.75351255       3.53515982
Fe      -0.01078144       8.43239001       5.27712377
Fe       1.55342443       6.76819139       5.27813779
Fe       1.53369205       8.43205003       3.52398338
Fe       0.01117737       6.74940528       7.05083954
Fe      -0.00311668       8.45203921       8.81402370
Fe       1.53308952       6.76267509       8.81999835
Fe       1.54182664       8.42683408       7.06919794
Fe      -0.01098826       6.76627712      10.58626234
Fe      -0.01277469       8.44574086      12.34827251
Fe       1.52887995       6.73796466      12.32824681
Fe       1.53392367       8.40617670      10.58516181
Fe      -0.00842907      10.09858717      -0.00055585
Fe       0.01053172      11.80181573       1.76953316
Fe       1.54778811      10.11610927       1.75169289
Fe       1.55265368      11.81325117       0.00412976
Fe      -0.00832709      10.12522713       3.52066992
Fe       0.01723056      11.80827154       5.29963076
Fe       1.54302684      10.10628702       5.28051558
Fe       1.53184512      11.80050975       3.53253406
Fe       0.01236401      10.10588995       7.04580037
Fe      -0.01854299      11.81064594       8.80627763
Fe       1.52655165      10.11795934       8.81846035
Fe       1.54708417      11.80176196       7.04574321
Fe      -0.01538689      10.10775170      10.58778901
Fe      -0.00222108      11.79274474      12.34308805
Fe       1.52451673      10.12367848      12.34927587
Fe       1.55742064      11.82383062      10.57044012
Fe       3.07466291      -0.01157393       0.00747096
Fe       3.07550785       1.67948987       1.75102083
Fe       4.64055466      -0.01291034       1.76370655
Fe       4.63707198       1.71612150       0.00155958
Fe       3.09434513      -0.00601799       3.51102247
Fe       3.06512108       1.68313302       5.28070311
Fe       4.65833700      -0.00442898       5.27084292
Fe       4.63664376       1.68180044       3.51083208
Fe       3.09113226       0.00656856       7.04552092
Fe       3.06625577       1.68291587       8.81767466
Fe       4.61598241      -0.01002537       8.83845481
Fe       4.62308757       1.67284101       7.02981082
Fe       3.09254691       0.00514484      10.59983012
Fe       3.08157766       1.68297901      12.35485395
Fe       4.62654431      -0.01146704      12.33670752
Fe       4.62952373       1.68261087      10.56213785
Fe       3.09320167       3.37568618      -0.01635210
Fe       3.07586312       5.05628942       1.77293871
Fe       4.63870667       3.36687552       1.76260089
Fe       4.63200075       5.05914381      -0.00589716
Fe       3.07917642       3.36803510       3.52096361
Fe       3.08906041       5.04361804       5.29884224
Fe       4.64419264       3.36713638       5.28509047
Fe       4.61697989       5.06531805       3.52353654
Fe       3.08949068       3.36634380       7.04039801
Fe       3.08568784       5.05264528       8.80496256
Fe       4.63459090       3.37348244       8.82811812
Fe       4.62690265       5.08734446       7.03475430
Fe       3.10618616       3.36067878      10.59602030
Fe       3.07215412       5.04534055      12.33239676
Fe       4.64261494       3.37629760      12.36744932
Fe       4.62115099       5.06924871      10.56766397
Fe       3.07006077       6.75370353      -0.00991863
Fe       3.08543532       8.44750565       1.73945010
Fe       4.62276753       6.75713626       1.75629215
Fe       4.63666642       8.41105051       0.00510834
Fe       3.09466444       6.74105971       3.53807080
Fe       3.07927352       8.44473721       5.27825396
Fe       4.63419691       6.73340118       5.28560629
Fe       4.63057964       8.42316521       3.51119726
Fe       3.08377857       6.75965910       7.06219588
Fe       3.10259658       8.44428718       8.82729877
Fe       4.62636487       6.73952550       8.82504095
Fe       4.62253414       8.42837235       7.05091917
Fe       3.09963486       6.75826694      10.57615108
Fe       3.09062298       8.43519545      12.34003477
Fe       4.64080897       6.74362985      12.35115513
Fe       4.62630161       8.41636504      10.57889954
Fe       3.10068566      10.11172539      -0.00949748
Fe       3.07784357      11.82010838       1.75002002
Fe       4.62018939      10.13533439       1.76737025
Fe       4.63818569      11.80109844      -0.00746076
Fe       3.09837431      10.13923462       3.51832322
Fe       3.10444866      11.81309050       5.30699007
Fe       4.63787219      10.13257670       5.28713542
Fe       4.63034907      11.81699779       3.52282589
Fe       3.08004126      10.12841657       7.04162525
Fe       3.07784166      11.81346830       8.82502006
Fe       4.63583720      10.11884590       8.80899199
Fe       4.62693521      11.81292828       7.02923790
Fe       3.09286490      10.11374912      10.56521628
Fe       3.09039290      11.79783109      12.36220856
Fe       4.62481224      10.11062780      12.35182025
Fe       4.62468550      11.81103179      10.56427171
Fe       6.18001017      -0.00628188      -0.02819694
Fe       6.15936096       1.67714209       1.77581885
Fe       7.72068135      -0.01164263       1.76228906
Fe       7.72359980       1.69132247       0.00442165
Fe       6.16917180       0.01831784       3.53457266
Fe       6.17683747       1.68107667       5.28683810
Fe       7.73975986       0.00850106       5.28637118
Fe       7.72334032       1.69525913       3.53078462
Fe       6.17093651       0.00184449       7.05947538
Fe       6.19465480       1.66086390       8.82739677
Fe       7.72276448       0.00963920       8.81960629
Fe       7.71689909       1.69194577       7.04066579
Fe       6.18302241       0.00131130      10.59123668
Fe       6.17772908       1.67522341      12.33468478
Fe       7.73055221      -0.01344256      12.33018958
Fe       7.72246921       1.69131238      10.59407503
Fe       6.16724944       3.37210324       0.00127237
Fe       6.16861906       5.06476298       1.76568695
Fe       7.72623888       3.37467809       1.75101413
Fe       7.71440599       5.06712395      -0.00134556
Fe       6.18871582       3.36689636       3.52229544
Fe       6.15710873       5.06307065       5.26824731
Fe       7.72781338       3.37852126       5.28772998
Fe       7.71219613       5.06341322       3.51744112
Fe       6.19808784       3.39560537       7.04827834
Fe       6.17871482       5.07010585       8.82047264
Fe       7.71987347       3.37818880       8.83620984
Fe       7.72331611       5.05431376       7.06081077
Fe       6.19434702       3.38572328      10.57430066
Fe       6.19580859       5.06094556      12.34225262
Fe       7.71527067       3.38323353      12.34277976
Fe       7.72737639       5.06924108      10.58160645
Fe       6.15941069       6.74219997       0.01328748
Fe       6.17422830       8.43800211       1.76885908
Fe       7.71784424       6.73135418       1.76341859
Fe       7.72747512       8.42747583       0.00143893
Fe       6.17303739       6.74441117       3.51706378
Fe       6.17843415       8.42179355       5.29764393
Fe       7.71799000       6.75001980       5.30033455
Fe       7.73031263       8.40705915       3.52430948
Fe       6.17700470       6.74344847       7.05683393
Fe       6.18115919       8.44499428       8.80170516
Fe       7.71461448       6.74075510       8.82459601
Fe       7.73756306       8.45252363       7.04897614
Fe       6.19491253       6.74515462      10.56264028
Fe       6.17197683       8.43418686      12.34584643
Fe       7.72579678       6.76203059      12.33533400
Fe       7.72204510       8.42631198      10.56073890
Fe       6.19249539      10.14372931       0.01477515
Fe       6.18850621      11.81746746       1.76255859
Fe       7.71768330      10.12429920       1.79382512
Fe       7.72456236      11.81431762      -0.00879724
Fe       6.19960625      10.12537008       3.52146485
Fe       6.18404790      11.81566164       5.27506203
Fe       7.71047711      10.12417915       5.28487477
Fe       7.73309881      11.79630241       3.53607932
Fe       6.17539760      10.12286607       7.05065094
Fe       6.18107867      11.78447281       8.81913404
Fe       7.72255132      10.12275718       8.81441303
Fe       7.71078383      11.80011406       7.04998316
Fe       6.19614096      10.12257455      10.59383567
Fe       6.16644495      11.80616833      12.31362046
Fe       7.72540239      10.12643922      12.33677483
Fe       7.72828589      11.79702257      10.59359072
Fe       9.24741511       0.01236831      -0.02043539
Fe       9.27061386       1.68875031       1.76354517
Fe      10.80739096      -0.00583658       1.75879905
Fe      10.80391516       1.69083884       0.00905853
Fe       9.27302025      -0.00001671       3.53357608
Fe       9.25118811       1.69403759       5.29298368
Fe      10.79508092      -0.00623703       5.30152091
Fe      10.80465270       1.66888827       3.53320706
Fe       9.24539156      -0.00998141       7.05219522
Fe       9.26884401       1.69351762       8.81932577
Fe      10.80934379       0.01487024       8.80087575
Fe      10.79024786       1.68281296       7.04435459
Fe       9.26114171      -0.00215975      10.56153662
Fe       9.24489125       1.69964808      12.35860029
Fe      10.80299472      -0.00918630      12.34735326
Fe      10.81652402       1.67670791      10.58202863
Fe       9.28443893       3.36919560       0.00107415
Fe       9.26128715       5.04732387       1.77695992
Fe      10.82026227       3.36752909       1.77711108
Fe      10.83134865       5.07407020       0.00445468
Fe       9.26585538       3.38430687       3.52152067
Fe       9.26885730       5.08523882       5.29156265
Fe      10.81539974       3.37452925       5.28619973
Fe      10.81392839       5.05280167       3.52700045
Fe       9.28384946       3.38208482       7.04600836
Fe       9.26345444       5.06958389       8.80928193
Fe      10.79017093       3.36231408       8.82436562
Fe      10.82302868       5.04256105       7.06123204
Fe       9.27476030       3.36538479      10.57917365
Fe       9.25198990       5.05927884      12.34791475
Fe      10.80358028       3.38275780      12.34558725
Fe      10.81603818       5.05431654      10.57987246
Fe       9.26119048       6.73964582       0.00221043
Fe       9.25102587       8.45107836       1.75963998
Fe      10.82242670       6.74830496       1.76558249
Fe      10.81231638       8.46560249       0.00336412
Fe       9.25978635       6.75528122       3.52707403
Fe       9.25239691       8.43240109       5.27062466
Fe      10.80521228       6.76039099       5.28377513
Fe      10.80963123       8.44000973       3.53226780
Fe       9.25565718       6.73870923       7.05471750
Fe       9.27037408       8.42947440       8.81924410
Fe      10.79076126       6.72641660       8.80399573
Fe      10.81340441       8.44502580       7.06169543
Fe       9.28637708       6.74485453      10.58138593
Fe       9.26680945       8.42943842      12.35588749
Fe      10.82035666       6.73414173      12.35643872
Fe      10.81875176       8.44397406      10.56862203
Fe       9.26127936      10.12288370      -0.00158180
Fe       9.27797586      11.79342706       1.75646319
Fe      10.81405184      10.12049801       1.75659316
Fe      10.80755177      11.80595821      -0.00064551
Fe       9.27474214      10.14605469       3.53153392
Fe       9.23517898      11.81060861       5.30922142
Fe      10.81244450      10.11904912       5.30371628
Fe      10.79514791      11.80949246       3.52790392
Fe       9.27122355      10.11063602       7.06291055
Fe       9.26205326      11.81053960       8.82300458
Fe      10.79256125      10.12631481       8.81166504
Fe      10.82084421      11.83019511       7.04919298
Fe       9.27568950      10.12058320      10.58830106
Fe       9.28888256      11.82384299      12.33739042
Fe      10.81121430      10.10868275      12.34806603
Fe      10.79902734      11.81631496      10.58579743
