500
Lattice="25.921343480201497 0.0 0.0 0.0 23.797610454909996 0.0 0.0 0.0 23.007141920005395" Properties=species:S:1:pos:R:3 id=sample_000993 pbc="F F F"
Al       0.00907144      -0.01395403      -0.00159473
Al       0.03551340       2.40094822       2.27365518
Al       2.59378910       0.00371071       2.30521830
Al       2.59413570       2.38649335      -0.00466936
Al      -0.01876814       0.01875975       4.59622234
Al      -0.01150402       2.37156862       6.86364441
Al       2.57871774       0.02850486       6.89436535
Al       2.57422467       2.40107513       4.57120292
Al       0.02002695      -0.01146788       9.19800086
Al       0.00603727       2.39182116      11.52949992
Al       2.55931511      -0.03763231      11.48304969
Al       2.56698782       2.39137847       9.21064027
Al      -0.00437652       0.02271841      13.80955642
Al      -0.02706502       2.33709684      16.08147626
Al       2.61524513      -0.00396200      16.12366039
Al       2.61375107       2.38933654      13.77332228
Al       0.04027284      -0.01760795      18.37999352
Al      -0.01541761       2.38545169      20.70664555
Al       2.58467504       0.01178459      20.69076069
Al       2.58009790       2.33622979      18.42952970
Al      -0.00875477       4.78267044       0.01638814
Al       0.00255103       7.16477802       2.28340713
Al       2.58782688       4.73619221       2.30641302
Al       2.56548989       7.15268580       0.00288702
Al      -0.03438663       4.73627928       4.58752978
Al       0.01350988       7.14852969       6.91722406
Al       2.61063749       4.76342236       6.92332345
Al       2.60408274       7.15257653       4.57468565
Al       0.02605864       4.78385784       9.21096953
Al       0.00038384       7.11610098      11.50725751
Al       2.60392610       4.77082225      11.46968985
Al       2.60523525       7.14520986       9.19604607
Al      -0.01378305       4.75449510      13.81180451
Al       0.00064078       7.17023395      16.08898191
Al       2.62700179       4.75599953      16.06362638
Al       2.57693967       7.13811414      13.80505362
Al      -0.00389276       4.77340891      18.37709881
Al      -0.00316962       7.14576733      20.72875644
Al       2.57806710       4.73377061      20.71463644
Al       2.58624539       7.14069183      18.40555299
Al       0.02925947       9.52957371      -0.00703643
Al      -0.00710940      11.88524609       2.28625922
Al       2.61531132       9.53429893       2.30843192
Al       2.62103545      11.87301143      -0.00620833
Al       0.02115300       9.52659982       4.57096606
Al      -0.02383072      11.89924828       6.89676869
Al       2.59445955       9.50689066       6.93109703
Al       2.61389152      11.89045017       4.62900253
Al      -0.01386622       9.52900398       9.17968972
Al       0.00746176      11.89611959      11.50695823
Al       2.57254470       9.53953017      11.52689745
Al       2.60037889      11.89638801       9.19589429
Al       0.00841447       9.52492277      13.80415932
Al      -0.02216153      11.88748632      16.12257098
Al       2.57289384       9.53432969      16.12148287
Al       2.55468550      11.90076683      13.80890260
Al       0.00730427       9.48520937      18.41993165
Al      -0.03673991      11.89463501      20.72665002
Al       2.57591601       9.48572104      20.69471322
Al       2.57043775      11.90691071      18.43328441
Al      -0.00211977      14.26888406      -0.02308939
Al       0.01165228      16.63092294       2.30145768
Al       2.56311522      14.25585154       2.29166957
Al       2.63294498      16.61303114      -0.01524791
Al       0.00248687      14.28319293       4.58448689
Al       0.02794033      16.67856139       6.91955009
Al       2.62426779      14.27989495       6.88218232
Al       2.58827805      16.66421578       4.62207939
Al       0.00598828      14.27688102       9.19431474
Al      -0.00085066      16.68668473      11.51300056
Al       2.60297125      14.27354973      11.49131084
Al       2.61322362      16.69764290       9.18873871
Al       0.00099465      14.27716303      13.77627655
Al       0.00156056      16.68796108      16.09819193
Al       2.59187127      14.30078211      16.09958991
Al       2.58628037      16.65309990      13.82610717
Al      -0.01397489      14.29131966      18.40499366
Al       0.01002456      16.63654173      20.70112328
Al       2.57544861      14.27171854      20.74953446
Al       2.56118810      16.66183903      18.41463472
Al      -0.00924142      19.01585100       0.03486942
Al      -0.01570900      21.40644879       2.32486118
Al       2.60536611      19.06287491       2.30200218
Al       2.61811349      21.43442559      -0.01731632
Al      -0.01577091      19.05345000       4.57713307
Al       0.01912699      21.40789478       6.87624019
Al       2.58196957      19.05696179       6.86850928
Al       2.59928630      21.43992743       4.59768661
Al      -0.01183398      19.02829627       9.21409479
Al       0.00628939      21.41680377      11.49125879
Al       2.61878572      19.03553568      11.50725813
Al       2.59115086      21.41624799       9.17301802
Al      -0.00936358      19.03453059      13.82713003
Al       0.00154895      21.41730163      16.11472689
Al       2.61021781      19.03620019      16.07237747
Al       2.59574381      21.40095995      13.78983716
Al      -0.00560223      19.04021521      18.42597720
Al       0.02094156      21.40045489      20.66937935
Al       2.59082803      19.05198255      20.69294768
Al       2.58769065      21.40740564      18.40856898
Al       5.19689969      -0.02266000      -0.00877246
Al       5.18133506       2.38492092       2.29481351
Al       7.79871055       0.00741750       2.28943695
Al       7.77758511       2.38630110       0.03479579
Al       5.18261496       0.00032224       4.59379390
Al       5.17148842       2.35154382       6.88364995
Al       7.79296875       0.00779413       6.90775389
Al       7.75493083       2.38326095       4.61584369
Al       5.19071402      -0.00183526       9.20607406
Al       5.19460403       2.37626179      11.46466656
Al       7.76215497      -0.00779490      11.50685488
Al       7.74856359       2.37177712       9.19496543
Al       5.18564601       0.01287860      13.81075597
Al       5.16889912       2.38221810      16.06670529
Al       7.77045183      -0.00066521      16.07854992
Al       7.78413048       2.37676253      13.80391945
Al       5.20266201      -0.00930024      18.41461311
Al       5.18637011       2.36460667      20.69649686
Al       7.77776672       0.00048968      20.70445962
Al       7.76817685       2.38178604      18.39806260
Al       5.18051139       4.77297577      -0.00283718
Al       5.19544198       7.15898038       2.28137674
Al       7.79160364       4.76273008       2.31077177
Al       7.77902661       7.14555241      -0.02013528
Al       5.17129762       4.76913385       4.61654334
Al       5.21106081       7.13159292       6.87805274
Al       7.77543733       4.77192211       6.86942128
Al       7.77434252       7.15382009       4.64126674
Al       5.19579867       4.74511038       9.21115233
Al       5.18262533       7.12114889      11.51336486
Al       7.74946123       4.74800738      11.49900716
Al       7.76871742       7.14923921       9.22593250
Al       5.18210088       4.77301973      13.79262478
Al       5.16612208       7.10782485      16.11777269
Al       7.75336094       4.77307865      16.08159827
Al       7.76782556       7.16245174      13.80835849
Al       5.17813966       4.77467552      18.41562144
Al       5.17885371       7.15460993      20.69657856
Al       7.78407578       4.73647696      20.69415419
Al       7.79113649       7.16907676      18.42321648
Al       5.21551668       9.50221186       0.00197032
Al       5.17010407      11.91686367       2.30254766
Al       7.77942027       9.51636202       2.30362637
Al       7.78041731      11.89787037      -0.00800492
Al       5.18532026       9.51851800       4.56232745
Al       5.18723835      11.89032005       6.91162399
Al       7.79068415       9.47208226       6.89077181
Al       7.78866751      11.92894341       4.60857264
Al       5.17252077       9.51999362       9.22036623
Al       5.15315281      11.90750234      11.51409228
Al       7.77658085       9.50569324      11.50434751
Al       7.76628252      11.90141679       9.19532688
Al       5.17240791       9.53188376      13.81246954
Al       5.19053545      11.91098214      16.10589785
Al       7.79098464       9.50030638      16.11874510
Al       7.77591858      11.88841895      13.82879163
Al       5.16518075       9.50989961      18.40734924
Al       5.17202151      11.88629096      20.71622888
Al       7.78536408       9.53174943      20.70491370
Al       7.77661948      11.88784337      18.41420886
Al       5.16961112      14.27352415      -0.01643799
Al       5.19545262      16.65414362       2.29097551
Al       7.72873083      14.26220423       2.31636995
Al       7.77148571      16.66185255       0.00476695
Al       5.17344934      14.28737296       4.59937748
Al       5.16450376      16.67198575       6.88047232
Al       7.78169044      14.26646117       6.91894437
Al       7.77101031      16.68455266       4.57510701
Al       5.17287739      14.27218022       9.20739778
Al       5.16691388      16.65880747      11.51068937
Al       7.80861944      14.27689724      11.51003132
Al       7.78007970      16.65340329       9.17609403
Al       5.18669139      14.26912225      13.81051185
Al       5.16631573      16.65225120      16.09606867
Al       7.77250674      14.29221892      16.10665774
Al       7.74358127      16.64522143      13.80801562
Al       5.16544949      14.25714535      18.36939985
Al       5.19814379      16.69840016      20.71002222
Al       7.76941504      14.29277145      20.69387995
Al       7.80151013      16.66220277      18.41591182
Al       5.20290029      19.02895371       0.00766942
Al       5.14922503      21.42901758       2.30367162
Al       7.78259414      19.04929365       2.30873752
Al       7.79185345      21.40773025       0.01334231
Al       5.15733839      19.02680182       4.60252675
Al       5.18443599      21.41103086       6.92179642
Al       7.75423083      19.04430623       6.92088660
Al       7.79648250      21.41339522       4.61774555
Al       5.21592132      19.03451565       9.22062612
Al       5.21061150      21.44081935      11.48940458
Al       7.76587423      19.03200807      11.47278200
Al       7.76314423      21.42325173       9.20634412
Al       5.19723812      19.02969222      13.78124008
Al       5.17488627      21.44117343      16.10625397
Al       7.78116068      19.04135466      16.10727026
Al       7.79998026      21.39858811      13.79727125
Al       5.17298893      19.04380410      18.37993062
Al       5.19641324      21.42614494      20.71456194
Al       7.78447944      19.02729877      20.71435366
Al       7.80097013      21.41672506      18.38400867
Al      10.38253230       0.01906768       0.00740487
Al      10.34880835       2.37653933       2.29803090
Al      12.99506759      -0.00174978       2.30506262
Al      12.96835458       2.36677405      -0.00702802
Al      10.35051247      -0.02010441       4.59623057
Al      10.36823732       2.39657232       6.89707378
Al      12.98171701       0.00161219       6.89569013
Al      12.96221739       2.40267198       4.59302060
Al      10.39347229       0.00294701       9.20854582
Al      10.38431165       2.39442223      11.52816469
Al      12.95559291       0.00859117      11.51298553
Al      12.94622548       2.37975705       9.18458639
Al      10.39872567       0.02005430      13.83510068
Al      10.38204792       2.38226556      16.06061759
Al      12.96976555       0.00055052      16.11031842
Al      12.97450922       2.33677996      13.83054708
Al      10.36432170       0.02641712      18.43888526
Al      10.35480804       2.38500894      20.70039039
Al      12.99853747      -0.02968007      20.70208531
Al      12.99841500       2.38849882      18.40902067
Al      10.36119533       4.75914906      -0.00824161
Al      10.34471114       7.13680962       2.31284831
Al      12.95324554       4.75880012       2.34648531
Al      12.95412344       7.13467116       0.02025141
Al      10.37443388       4.75326537       4.60620382
Al      10.35478792       7.15098661       6.92279499
Al      12.94687278       4.76311721       6.91855053
Al      13.01090327       7.14505551       4.55639749
Al      10.34881682       4.75058591       9.20716418
Al      10.38641645       7.11373272      11.52584933
Al      12.96206142       4.74518008      11.50543547
Al      12.94174489       7.14361408       9.22065493
Al      10.34963132       4.73584455      13.79216246
Al      10.38386446       7.14359518      16.10393616
Al      12.95560550       4.76513317      16.11299760
Al      12.94862142       7.14971292      13.77058281
Al      10.37313693       4.77688953      18.40441520
Al      10.35444232       7.14318939      20.70335491
Al      12.97006113       4.77671309      20.69692137
Al      12.95835200       7.12003669      18.40743174
Al      10.37731723       9.48910979      -0.01678250
Al      10.38633771      11.89805037       2.31739463
Al      12.96572744       9.47772657       2.26427125
Al      12.99213974      11.89662750       0.02579453
Al      10.39770325       9.55351698       4.59860197
Al      10.36242580      11.90657215       6.88376029
Al      12.97994533       9.51465494       6.89952504
Al      12.93000199      11.88022225       4.59580312
Al      10.36513173       9.52500473       9.23311708
Al      10.35060525      11.90004275      11.49669808
Al      12.96588344       9.52846798      11.51548488
Al      12.96323206      11.91810063       9.20196219
Al      10.37541657       9.49823915      13.79930412
Al      10.37912060      11.89294912      16.08750069
Al      12.94785825       9.51487431      16.10983539
Al      12.93875101      11.89486062      13.81550180
Al      10.37006496       9.53996826      18.43106197
Al      10.34359218      11.88973324      20.71843841
Al      12.96970791       9.49522006      20.70907540
Al      12.95237915      11.90545511      18.41056775
Al      10.37831300      14.27606728      -0.01634805
Al      10.36686152      16.69226432       2.27982369
Al      12.96134933      14.29794863       2.33219068
Al      12.95184915      16.67655426      -0.01857040
Al      10.37139514      14.28406027       4.60724236
Al      10.35951140      16.66192876       6.88545989
Al      12.93735880      14.27919809       6.90800203
Al      12.92535889      16.66466121       4.60221584
Al      10.37390130      14.28966602       9.20706980
Al      10.37819299      16.62381081      11.49732262
Al      12.97254568      14.22221508      11.51237106
Al      12.95608900      16.65518616       9.22362064
Al      10.36847110      14.24602021      13.80616221
Al      10.37080785      16.65685875      16.10396474
Al      12.95245845      14.26445857      16.08543797
Al      12.96527681      16.64084802      13.80550441
Al      10.36648414      14.26054471      18.37747393
Al      10.35853554      16.64193361      20.72088929
Al      12.98133449      14.26030442      20.71272564
Al      12.93001547      16.66003456      18.37690085
Al      10.36391032      19.05355762      -0.02339748
Al      10.39124916      21.39053548       2.31084300
Al      12.96885150      19.04997787       2.31036213
Al      13.00837615      21.42969181       0.01270339
Al      10.38822251      19.04219833       4.62310322
Al      10.37930092      21.44114127       6.89445846
Al      12.94637816      19.02593060       6.91191365
Al      12.96407435      21.43819599       4.58114179
Al      10.38525675      19.04473625       9.18695077
Al      10.40380257      21.39121181      11.50108198
Al      12.95872297      19.06883439      11.53235449
Al      12.90439646      21.41688169       9.19230774
Al      10.37785159      19.05026339      13.78203478
Al      10.39625745      21.40758917      16.11249164
Al      12.97854156      19.02340587      16.12116303
Al      12.94203738      21.43210847      13.81810563
Al      10.36047585      19.03383079      18.40012314
Al      10.31507627      21.42174600      20.68831242
Al      12.96652923      19.06836592      20.71746533
Al      12.92683126      21.40826947      18.41734669
Al      15.55310654      -0.01240262      -0.01847510
Al      15.54528342       2.36759386       2.30750732
Al      18.16660871      -0.05272289       2.30567809
Al      18.12566891       2.37791926       0.02742893
Al      15.57650249       0.01058931       4.58337131
Al      15.57323698       2.38561345       6.87650037
Al      18.13027223       0.00781204       6.89877495
Al      18.16749371       2.35500899       4.60320515
Al      15.55217076      -0.00794085       9.22559256
Al      15.59246660       2.36752990      11.48457202
Al      18.14723616       0.01357045      11.51433518
Al      18.13877183       2.37957455       9.19477693
Al      15.55074069       0.01007023      13.81174344
Al      15.52916355       2.36625861      16.10338949
Al      18.12410244      -0.00748917      16.09096896
Al      18.13296242       2.38698405      13.78329856
Al      15.55380976      -0.01909774      18.40848968
Al      15.55014610       2.38223120      20.70427701
Al      18.11423702      -0.01499945      20.71248068
Al      18.13591822       2.37377733      18.39764478
Al      15.57305096       4.79991167       0.01585582
Al      15.54475887       7.12024847       2.29830352
Al      18.17728396       4.76860568       2.31139070
Al      18.17289189       7.15738305      -0.00267605
Al      15.54913048       4.74777435       4.61647633
Al      15.51292911       7.15506230       6.88120958
Al      18.14482192       4.76401713       6.92480614
Al      18.16157574       7.15439093       4.63077261
Al      15.55390611       4.72910435       9.19308627
Al      15.56601277       7.11553662      11.48899334
Al      18.14205420       4.74658174      11.53706187
Al      18.13612384       7.15997137       9.20194185
Al      15.53454614       4.79276313      13.80951813
Al      15.52235193       7.13257996      16.11656333
Al      18.15405828       4.78790490      16.08697959
Al      18.13310959       7.12388158      13.80697399
Al      15.55959448       4.77712515      18.42201300
Al      15.55218852       7.14254958      20.70883503
Al      18.15281422       4.76286049      20.69653958
Al      18.14542156       7.15536591      18.39312072
Al      15.54026490       9.50435767       0.01207752
Al      15.53694319      11.90366690       2.30673419
Al      18.11352922       9.51606496       2.30449060
Al      18.11885108      11.88734082       0.01236279
Al      15.58704202       9.51940017       4.59987440
Al      15.57688851      11.90804318       6.90261621
Al      18.14824229       9.50742869       6.89630878
Al      18.13566187      11.89489536       4.59374730
Al      15.55328290       9.53191658       9.22012096
Al      15.56257526      11.90645844      11.50017872
Al      18.11472973       9.52859803      11.47654033
Al      18.16222943      11.91270896       9.21556210
Al      15.56084968       9.53381920      13.79049215
Al      15.55866610      11.87261216      16.10501664
Al      18.11703582       9.50267559      16.10881170
Al      18.15409499      11.88669264      13.81041332
Al      15.56964992       9.53876061      18.40156838
Al      15.56468261      11.86820198      20.71331361
Al      18.19028903       9.55826494      20.69739401
Al      18.12464198      11.92887405      18.41597495
Al      15.55930325      14.29273243      -0.00560067
Al      15.53394943      16.66520008       2.27606708
Al      18.15398380      14.30269835       2.30558975
Al      18.13412874      16.64670465       0.01807963
Al      15.59011895      14.30302885       4.62509711
Al      15.56270277      16.65322060       6.90194891
Al      18.15287489      14.30158658       6.91401123
Al      18.12725366      16.67722379       4.61310859
Al      15.49905555      14.30065706       9.22253801
Al      15.54232882      16.68035085      11.48879358
Al      18.16421262      14.29176164      11.49566892
Al      18.14412141      16.68849761       9.22016274
Al      15.55446743      14.28982273      13.76996968
Al      15.54749100      16.67145643      16.11211028
Al      18.12213370      14.26667024      16.08651330
Al      18.14957927      16.68169131      13.79902654
Al      15.55184654      14.28176113      18.45314058
Al      15.53959848      16.66465865      20.69845640
Al      18.14979942      14.31895566      20.68712815
Al      18.12649539      16.66766070      18.38027937
Al      15.54639471      19.03037213      -0.02321132
Al      15.55722190      21.41783545       2.31003860
Al      18.15132883      19.05171106       2.31095088
Al      18.17893889      21.40368140      -0.02466808
Al      15.57646437      19.05786853       4.59072722
Al      15.50815624      21.42722056       6.88268637
Al      18.16456539      19.04792208       6.88403462
Al      18.13705026      21.42055131       4.59608002
Al      15.53234893      19.05735955       9.21925542
Al      15.55840666      21.37163713      11.48487770
Al      18.12899568      19.02062500      11.50532810
Al      18.14596044      21.41261064       9.20622314
Al      15.52875231      19.05041800      13.82203058
Al      15.52922561      21.42357782      16.06116060
Al      18.12279520      19.03264210      16.13194254
Al      18.16972873      21.39415809      13.79688314
Al      15.56564327      19.04922221      18.39470042
Al      15.54031673      21.43602076      20.67629287
Al      18.15143802      19.05173018      20.69320017
Al      18.12456123      21.43549255      18.38459776
Al      20.75604934      -0.02345479      -0.00367414
Al      20.72889989       2.39892137       2.30919921
Al      23.35286701      -0.03579221       2.31289242
Al      23.30109879       2.39262582       0.00556462
Al      20.73795151       0.00165152       4.59948833
Al      20.75699690       2.36947200       6.90383481
Al      23.35407866      -0.01532544       6.86756404
Al      23.32807225       2.39695373       4.59800676
Al      20.74290754       0.02687941       9.20722038
Al      20.71406511       2.37870749      11.50915024
Al      23.33691587       0.00460543      11.55361259
Al      23.31006915       2.40780163       9.22912245
Al      20.74615395      -0.02061013      13.83229783
Al      20.77074829       2.40483243      16.09674983
Al      23.31455822       0.01761648      16.10782044
Al      23.31235680       2.37910463      13.82157949
Al      20.76828496      -0.01251867      18.40071961
Al      20.73713802       2.36107486      20.70579872
Al      23.31593521      -0.00976512      20.69941942
Al      23.32291043       2.39507937      18.41775225
Al      20.72114526       4.78461272       0.00034867
Al      20.73295127       7.12311433       2.31468321
Al      23.28775461       4.74799557       2.30249656
Al      23.31389021       7.13503087      -0.02745805
Al      20.71626277       4.76132027       4.61298929
Al      20.75227798       7.13644050       6.91385736
Al      23.36287580       4.74929577       6.91325982
Al      23.32521060       7.13502959       4.59193156
Al      20.73697158       4.79033191       9.19716332
Al      20.72155558       7.15406992      11.49646743
Al      23.30297094       4.73765572      11.49317895
Al      23.31565606       7.12567311       9.19157641
Al      20.75204502       4.75474844      13.78368837
Al      20.75713608       7.13828706      16.12957287
Al      23.33282742       4.75599742      16.09977604
Al      23.33524960       7.15642031      13.81617368
Al      20.75038878       4.79700787      18.41996386
Al      20.73256632       7.14669407      20.71655693
Al      23.34317600       4.74084660      20.70526890
Al      23.33539976       7.14304651      18.38945826
Al      20.74392798       9.51940875       0.01223264
Al      20.75687731      11.88554743       2.30704720
Al      23.33279579       9.53550026       2.30665461
Al      23.33254750      11.92709552      -0.00231658
Al      20.73796304       9.51413089       4.55713664
Al      20.75538975      11.88920966       6.91991331
Al      23.36065419       9.49575337       6.89363548
Al      23.34632839      11.89158056       4.57864850
Al      20.72185607       9.50396617       9.19688379
Al      20.72853123      11.88829007      11.50983457
Al      23.34088211       9.54375903      11.46475551
Al      23.32232047      11.87356506       9.18276804
Al      20.73502867       9.55908076      13.80604463
Al      20.73104479      11.89551367      16.11008972
Al      23.32225667       9.52195055      16.10521006
Al      23.33262471      11.87241884      13.83288642
Al      20.71562016       9.53394764      18.40820709
Al      20.72825200      11.86675864      20.73645342
Al      23.29025229       9.53333453      20.70219744
Al      23.32214808      11.94447587      18.40028512
Al      20.76782482      14.28138617      -0.02716555
Al      20.71204669      16.64989529       2.26859475
Al      23.31007203      14.27436954       2.29658037
Al      23.30412773      16.63979484       0.00172875
Al      20.73985590      14.27701483       4.59144928
Al      20.71265662      16.64639306       6.91793284
Al      23.34377420      14.30780514       6.88911385
Al      23.30310228      16.67408025       4.59890198
Al      20.71957250      14.25513114       9.19816692
Al      20.71716027      16.63118784      11.50764077
Al      23.32639167      14.27282954      11.49118262
Al      23.30533933      16.66039656       9.16661278
Al      20.72402829      14.31458084      13.81668720
Al      20.71688135      16.65813786      16.07325843
Al      23.37317569      14.27313780      16.10465428
Al      23.34834387      16.67575328      13.78089718
Al      20.73914593      14.32674367      18.39794343
Al      20.73589328      16.69249083      20.70413550
Al      23.31126542      14.25400412      20.72381569
Al      23.34492295      16.66082017      18.37750199
Al      20.71933682      19.04676096       0.00960278
Al      20.73076718      21.39340794       2.28939871
Al      23.33988877      19.03596395       2.30651210
Al      23.31965889      21.41428569      -0.00587995
Al      20.74121081      19.00947798       4.60106112
Al      20.73731177      21.46129223       6.93442448
Al      23.33447372      19.04662374       6.91605862
Al      23.32635671      21.42089180       4.59344401
Al      20.73409666      19.03814293       9.18343815
Al      20.72891644      21.42685771      11.55222090
Al      23.32511705      19.02259092      11.45295760
Al      23.29994410      21.43382212       9.17654514
Al      20.72729487      19.06575225      13.80395514
Al      20.70065991      21.42557270      16.07389877
Al      23.31198986      19.02665397      16.08643653
Al      23.32256743      21.41754743      13.81488475
Al      20.72336055      19.01455198      18.40935454
Al      20.76696211      21.42915818      20.70843587
Al      23.31355496      19.06392982      20.69862615
Al      23.33859748      21.41287918      18.39585292
