108
Lattice="13.109753686926966 0.0 0.0 0.0 13.154827551562017 0.0 0.0 0.0 15.171322172564267" Properties=species:S:1:pos:R:3 id=sample_001832 pbc="F F F"
Au      -0.00912807      -0.01488026      -0.00782758
Au      -0.00821893       2.19158325       2.52652007
Au       2.18130068      -0.03448340       2.54176611
Au       2.19914021       2.19301978      -0.00127217
Au      -0.00355216      -0.01281307       5.03059905
Au       0.01808476       2.19989202       7.59898936
Au       2.18605923      -0.00514632       7.58842894
Au       2.19665291       2.20626730       5.05060520
Au       0.01639294       0.00251132      10.08997060
Au      -0.01834608       2.19609327      12.64596659
Au       2.16233630      -0.01476145      12.62606982
Au       2.17964808       2.18758889      10.11795782
Au      -0.01087727       4.37051649      -0.00820793
Au      -0.01597171       6.57203254       2.54369948
Au       2.20925666       4.38307620       2.54835982
Au       2.21551495       6.58797877      -0.01202844
Au      -0.01219786       4.36112192       5.03921944
Au       0.00018139       6.57862702       7.59434081
Au       2.19154062       4.40432422       7.59065871
Au       2.16889989       6.58170654       5.07594535
Au       0.05753949       4.39186693      10.08523129
Au      -0.00468688       6.60592201      12.62670680
Au       2.14631071       4.39563222      12.64025383
Au       2.18427029       6.58712059      10.10091665
Au      -0.00925386       8.75117228       0.00965051
Au       0.01493776      10.95425740       2.55412946
Au       2.19731628       8.79676596       2.53773895
Au       2.19978818      10.97095055      -0.03367966
Au      -0.03336615       8.79563513       5.07124402
Au       0.01090307      10.96204104       7.57580903
Au       2.19247591       8.76696343       7.56972764
Au       2.15771294      10.95885878       5.05532889
Au      -0.00422132       8.73944232      10.10259749
Au       0.00328058      10.95659475      12.65350112
Au       2.17513134       8.73625059      12.63673052
Au       2.17644433      10.96991788      10.15861968
Au       4.34620798      -0.01812743       0.01494199
Au       4.37537642       2.17587629       2.52492345
Au       6.55469881      -0.01783754       2.55698416
Au       6.55446454       2.18610968       0.01498541
Au       4.40157841      -0.00347154       5.06833820
Au       4.38086348       2.17113781       7.56625968
Au       6.52793602      -0.01803255       7.57851003
Au       6.57033968       2.21593521       5.07900181
Au       4.34542845      -0.02041771      10.10205463
Au       4.35668071       2.19483505      12.62821640
Au       6.57520018      -0.00058715      12.63582761
Au       6.55112284       2.18320487      10.09103177
Au       4.36844134       4.38157019       0.02649833
Au       4.37706708       6.57779179       2.56226133
Au       6.58505989       4.40496168       2.52487400
Au       6.54116102       6.58327850       0.02244601
Au       4.36632505       4.38589198       5.05705787
Au       4.36169734       6.57879356       7.58745251
Au       6.57190247       4.39136997       7.58000276
Au       6.59108479       6.57299799       5.02649013
Au       4.37481091       4.34525852      10.10164208
Au       4.34473800       6.56356403      12.60997699
Au       6.55017266       4.39841377      12.63651877
Au       6.56082421       6.60543590      10.13467058
Au       4.37679319       8.75702651      -0.02301766
Au       4.39112105      10.93774640       2.50798853
Au       6.53759429       8.78273846       2.52237718
Au       6.58259998      10.95324588       0.00939310
Au       4.37866706       8.76209366       5.03963159
Au       4.34815938      10.98709143       7.57367522
Au       6.56121748       8.79232595       7.59655117
Au       6.54746431      10.95051962       5.09663598
Au       4.39201744       8.74237474      10.12338371
Au       4.35493602      10.96211221      12.66866349
Au       6.55534487       8.74108820      12.64737502
Au       6.56942702      10.98157375      10.11784355
Au       8.74692895       0.00795126      -0.01817683
Au       8.72311693       2.19582199       2.50422276
Au      10.91509743      -0.00509548       2.52326798
Au      10.92477089       2.22051100      -0.01307192
Au       8.74228593      -0.01467785       5.03523928
Au       8.73647706       2.20291259       7.56196867
Au      10.90635790      -0.01649685       7.58725624
Au      10.92560483       2.23724964       5.04579789
Au       8.71715391       0.00478132      10.12169401
Au       8.73306604       2.20129797      12.67193008
Au      10.90842788       0.00293376      12.62793612
Au      10.94495671       2.19609534      10.12324099
Au       8.73055304       4.39305965      -0.00683838
Au       8.74295006       6.55974167       2.53314078
Au      10.93266353       4.38473002       2.54008610
Au      10.94541242       6.55918164       0.00189245
Au       8.72856230       4.39600597       5.08978918
Au       8.73508891       6.57051440       7.58279041
Au      10.93186915       4.38036513       7.57651389
Au      10.94441366       6.55831251       5.07138692
Au       8.73283600       4.37788310      10.11639864
Au       8.75526308       6.57706904      12.61709313
Au      10.91681570       4.40997978      12.65208301
Au      10.91489440       6.58572304      10.15554057
Au       8.72831060       8.78270578      -0.01249705
Au       8.73531098      10.97288132       2.58504718
Au      10.92723559       8.75032006       2.55595514
Au      10.94797706      10.97609568       0.01006179
Au       8.74395692       8.78054241       5.06586088
Au       8.74943389      10.95621358       7.58048281
Au      10.91761569       8.80632445       7.57000947
Au      10.92239359      10.97928250       5.06150062
Au       8.70678678       8.74374204      10.11019042
Au       8.73706883      10.99393661      12.62314407
Au      10.94658219       8.77051421      12.64114456
Au      10.91983637      10.99133359      10.09868694
