108
Lattice="14.188276021087473 0.0 0.0 0.0 12.336250743312537 0.0 0.0 0.0 14.006049093836296" Properties=species:S:1:pos:R:3 id=sample_001705 pbc="F F F"
Au       0.00628990      -0.00445043      -0.00732253
Au      -0.01026333       2.05144005       2.31723505
Au       2.37794619       0.02872464       2.31926787
Au       2.36389219       2.03909608       0.01358995
Au       0.03976115       0.00164578       4.67403013
Au       0.00026945       2.05093636       7.00503867
Au       2.34083237       0.02228283       7.02380434
Au       2.35528438       2.04757562       4.66355460
Au       0.01824116       0.00201462       9.33152647
Au      -0.02459335       2.01924743      11.66523599
Au       2.35859095      -0.00016341      11.67423761
Au       2.36771111       2.06762503       9.33374243
Au      -0.00320508       4.07966606       0.00696067
Au       0.00755296       6.18099553       2.32295893
Au       2.39259801       4.14392917       2.32404815
Au       2.39831585       6.15119027      -0.00627605
Au      -0.02850504       4.09662731       4.67535579
Au       0.00070446       6.15443405       7.00683424
Au       2.36751102       4.09497599       6.98172561
Au       2.34738197       6.16684612       4.69226633
Au      -0.01000015       4.11722531       9.35622881
Au       0.02071429       6.16731896      11.66488484
Au       2.34657471       4.09639930      11.67241834
Au       2.34025923       6.14155313       9.34013668
Au       0.01701271       8.22937685      -0.00575594
Au       0.01495423      10.29924880       2.36353906
Au       2.36922017       8.22716735       2.32997716
Au       2.35253871      10.28808709       0.01138504
Au       0.01512442       8.19378742       4.64453569
Au      -0.01644755      10.29508703       7.00373240
Au       2.34385956       8.20894170       7.01174455
Au       2.36859936      10.28443469       4.66683250
Au      -0.00517394       8.23561338       9.31712447
Au      -0.01363811      10.25431572      11.64486467
Au       2.40579783       8.22365235      11.69750987
Au       2.35822855      10.27698191       9.34846777
Au       4.73753563       0.00261752       0.02187954
Au       4.73473672       2.05256917       2.35057574
Au       7.09610670      -0.01869983       2.32210056
Au       7.11013921       2.07113388       0.00853100
Au       4.74716596       0.00051632       4.63945474
Au       4.69074051       2.04611146       7.01972949
Au       7.09907917      -0.02557931       6.98573399
Au       7.08821169       2.03728784       4.65115587
Au       4.71938504      -0.01546860       9.39867378
Au       4.75239707       2.04989007      11.68277786
Au       7.08207444       0.03006820      11.69404157
Au       7.08352542       2.06653096       9.31593952
Au       4.71214751       4.11062475      -0.00574802
Au       4.74559020       6.18889087       2.36613339
Au       7.10889855       4.12327699       2.31769995
Au       7.11188234       6.18177897       0.02149378
Au       4.76668078       4.13577891       4.67252626
Au       4.72584432       6.17448175       7.00624703
Au       7.11110154       4.09406346       6.99415111
Au       7.06971068       6.17735028       4.64332104
Au       4.74976977       4.09187660       9.34367912
Au       4.72825917       6.17580057      11.65870845
Au       7.10763826       4.12226973      11.67907363
Au       7.10404824       6.19187816       9.37047294
Au       4.72227027       8.21231078       0.00244904
Au       4.73137185      10.25888443       2.34359335
Au       7.11242617       8.22409843       2.35113704
Au       7.08825574      10.27903537       0.01925132
Au       4.72967231       8.21539537       4.64113358
Au       4.71990571      10.26948058       7.02777522
Au       7.06873217       8.26077640       7.01283453
Au       7.08919614      10.23686415       4.65291235
Au       4.71869808       8.25210758       9.34299171
Au       4.72584809      10.30558799      11.68826243
Au       7.08396918       8.21751555      11.67644789
Au       7.09171982      10.30750238       9.32677548
Au       9.45236433      -0.02118178       0.00511876
Au       9.47524250       2.05808065       2.33695171
Au      11.84608590       0.00876301       2.33315646
Au      11.81670695       2.06689141       0.02430287
Au       9.47066864       0.00333028       4.65589014
Au       9.44261342       2.04808848       6.99111733
Au      11.81577472      -0.00841266       6.98162621
Au      11.84098129       2.09284522       4.69074616
Au       9.45384488      -0.00394904       9.36039034
Au       9.45709373       2.04976569      11.69263186
Au      11.82144719       0.00830240      11.67265797
Au      11.83254473       2.01705512       9.34798085
Au       9.47000724       4.09813819       0.00131675
Au       9.48148564       6.17282512       2.33884213
Au      11.83851108       4.09169853       2.32316231
Au      11.80859190       6.18621781       0.00332398
Au       9.43553461       4.11599776       4.69274681
Au       9.47504416       6.18574766       6.99721306
Au      11.83442537       4.10968638       7.02495966
Au      11.82443614       6.14907633       4.68670023
Au       9.46626620       4.08503307       9.32099525
Au       9.45196366       6.17176865      11.67946197
Au      11.82777943       4.10281325      11.68388901
Au      11.82648017       6.15196482       9.32263575
Au       9.45055169       8.19275584       0.01241284
Au       9.45892078      10.28356758       2.33748248
Au      11.85448866       8.20377599       2.34715700
Au      11.80724604      10.28216097      -0.01476900
Au       9.44015597       8.21279223       4.67639626
Au       9.46245124      10.29498530       7.02102943
Au      11.82100847       8.22657278       7.01131400
Au      11.80623017      10.27040201       4.65333844
Au       9.47992975       8.22866693       9.29858894
Au       9.45127921      10.25099448      11.64798697
Au      11.85884599       8.24051034      11.66820782
Au      11.80478554      10.28461173       9.30690775
