84
Lattice="135.01664069381826 0.0 0.0 0.0 135.01664069381826 0.0 0.0 0.0 135.01664069381826" Properties=species:S:1:pos:R:3:initial_magmoms:R:1 id=sample_000562 pbc="T T T"
Fe      65.36328016      65.33866202      65.33949619       2.30000000
Fe      66.79429184      66.77041995      63.88252867       2.30000000
Fe      68.19157724      68.20208132      62.47668968       2.30000000
Fe      69.66141566      69.63045031      61.08042822       2.30000000
Fe      71.05538121      71.06217553      59.61606157       2.30000000
Fe      72.52164823      72.52852008      58.20124209       2.30000000
Fe      66.74504021      63.92292950      66.74388999       2.30000000
Fe      68.21894078      65.34809721      65.33255120       2.30000000
Fe      69.62755293      66.79452146      63.91813898       2.30000000
Fe      71.10751983      68.22292823      62.44839805       2.30000000
Fe      72.48894439      69.66727578      61.05713058       2.30000000
Fe      73.93705559      71.07710146      59.61943105       2.30000000
Fe      68.22568384      62.46938115      68.21578649       2.30000000
Fe      69.59283724      63.89408978      66.78671887       2.30000000
Fe      71.08298305      65.34755601      65.32770821       2.30000000
Fe      72.51484957      66.77691572      63.89194059       2.30000000
Fe      73.92492915      68.19544354      62.50389029       2.30000000
Fe      69.64304276      61.02647341      69.65059993       2.30000000
Fe      71.09549225      62.47479986      68.21291135       2.30000000
Fe      72.50514715      63.92752698      66.80156994       2.30000000
Fe      73.94902073      65.34977178      65.33247780       2.30000000
Fe      71.06266149      59.62824351      71.08072207       2.30000000
Fe      72.48491935      61.06124206      69.63318524       2.30000000
Fe      73.94437026      62.44705293      68.22255013       2.30000000
Fe      72.54102774      58.13802948      72.47905493       2.30000000
Fe      73.95225093      59.58337135      71.11168674       2.30000000
Fe      63.90155213      66.74902191      66.76537854       2.30000000
Fe      65.34820380      68.21241048      65.34319517       2.30000000
Fe      66.77844707      69.63513293      63.91072000       2.30000000
Fe      68.19640460      71.07491120      62.46141450       2.30000000
Fe      69.61219232      72.50130915      61.04610555       2.30000000
Fe      71.05987360      73.97337017      59.62212845       2.30000000
Fe      65.34012209      65.35679512      68.24586140       2.30000000
Fe      66.79014144      66.77909225      66.76271534       2.30000000
Fe      68.24347482      68.20765278      65.35440899       2.30000000
Fe      69.64261053      69.63887571      63.89809624       2.30000000
Fe      71.07592364      71.08516041      62.48503259       2.30000000
Fe      66.73891150      63.89773772      69.68863549       2.30000000
Fe      68.21652801      65.34245573      68.21383348       2.30000000
Fe      69.62105087      66.79135625      66.80950983       2.30000000
Fe      71.06559633      68.20496725      65.31582881       2.30000000
Fe      68.19028514      62.48622132      71.07755017       2.30000000
Fe      69.64076154      63.89083307      69.63628506       2.30000000
Fe      71.05346672      65.30467735      68.19624528       2.30000000
Fe      69.64442224      61.01376884      72.52729035       2.30000000
Fe      71.06729251      62.47204649      71.10867463       2.30000000
Fe      71.11177046      59.58840492      73.94108028       2.30000000
Fe      62.49821392      68.20463123      68.18017701       2.30000000
Fe      63.91713955      69.62145286      66.80108470       2.30000000
Fe      65.33677423      71.06349089      65.35384689       2.30000000
Fe      66.81195335      72.49838372      63.92005511       2.30000000
Fe      68.23039855      73.92660881      62.47535976       2.30000000
Fe      63.91758847      66.79907429      69.62576918       2.30000000
Fe      65.32676432      68.21298467      68.22229463       2.30000000
Fe      66.75654127      69.63839007      66.80113726       2.30000000
Fe      68.19305231      71.04353570      65.34899815       2.30000000
Fe      65.34608446      65.37814022      71.06089047       2.30000000
Fe      66.75338402      66.76527809      69.62600323       2.30000000
Fe      68.22755412      68.21075215      68.23143638       2.30000000
Fe      69.64176532      69.66507585      66.74800184       2.30000000
Fe      66.76950884      63.90514185      72.54150054       2.30000000
Fe      68.22642377      65.35020536      71.08974969       2.30000000
Fe      69.64124355      66.79309041      69.61835121       2.30000000
Fe      68.19607916      62.43400564      73.95132852       2.30000000
Fe      61.06713799      69.64493852      69.64877111       2.30000000
Fe      62.47828486      71.06634872      68.18300896       2.30000000
Fe      63.87713182      72.49338392      66.78844450       2.30000000
Fe      65.35504824      73.95590229      65.32545886       2.30000000
Fe      62.50781096      68.21986996      71.10110602       2.30000000
Fe      63.92817943      69.63832112      69.62945130       2.30000000
Fe      65.33761843      71.05952521      68.24556947       2.30000000
Fe      63.89287628      66.76694456      72.52299566       2.30000000
Fe      65.34569251      68.24020136      71.05490791       2.30000000
Fe      66.76298176      69.63662604      69.67077117       2.30000000
Fe      65.34971465      65.35796310      73.92962736       2.30000000
Fe      59.60312743      71.05839866      71.08271347       2.30000000
Fe      61.05320862      72.53854801      69.67251659       2.30000000
Fe      62.47729367      73.92671940      68.21732746       2.30000000
Fe      61.05647218      69.63325649      72.49728581       2.30000000
Fe      62.47271272      71.07044064      71.08762379       2.30000000
Fe      62.47086631      68.21237324      73.94189867       2.30000000
Fe      58.18566683      72.50358694      72.54410034       2.30000000
Fe      59.60014406      73.96773078      71.07787058       2.30000000
Fe      59.59774731      71.06679388      73.95072487       2.30000000
