256
Lattice="14.786322022825622 0.0 0.0 0.0 16.71027356998167 0.0 0.0 0.0 18.429419610232117" Properties=species:S:1:pos:R:3 id=sample_000474 pbc="F F F"
Au      -0.00292657       0.01213389      -0.01891970
Au      -0.00035997       2.10355836       2.30273109
Au       1.83532413      -0.00127198       2.28872361
Au       1.84025940       2.09306068      -0.00485485
Au      -0.00137873       0.00311903       4.60273227
Au      -0.00626457       2.07607595       6.92511882
Au       1.83370237       0.01350753       6.91458619
Au       1.86339223       2.07757413       4.61724162
Au      -0.00048345      -0.01953647       9.21994813
Au      -0.00405971       2.08022250      11.52144044
Au       1.84033458       0.01291323      11.50856483
Au       1.86472388       2.07950736       9.21683565
Au      -0.00349780       0.00248429      13.82569011
Au       0.01372975       2.09185829      16.11061082
Au       1.86169483      -0.00677842      16.12917368
Au       1.85404497       2.08792851      13.83493454
Au       0.00211423       4.16651486      -0.00531391
Au      -0.00540928       6.25846927       2.30336026
Au       1.83660613       4.16842295       2.31560818
Au       1.86102659       6.26997955       0.00038514
Au      -0.00331097       4.18412089       4.59623939
Au       0.00435811       6.27050665       6.90337703
Au       1.86921124       4.17365664       6.91351275
Au       1.85034346       6.25982740       4.59925699
Au       0.00605342       4.17577051       9.22706759
Au       0.00066729       6.25550499      11.53050134
Au       1.85315478       4.18099370      11.52232285
Au       1.84189810       6.27182785       9.21282160
Au      -0.01675849       4.19551576      13.81741229
Au       0.00636906       6.27077409      16.12806454
Au       1.83894383       4.19286925      16.12024873
Au       1.84517422       6.25777126      13.82840489
Au      -0.00946631       8.35645147      -0.00361776
Au       0.01156385      10.43827356       2.29874925
Au       1.83698521       8.36072135       2.30844945
Au       1.85746671      10.43180562       0.00635019
Au      -0.00033662       8.34762669       4.62127526
Au       0.01131396      10.43788981       6.91945014
Au       1.86320640       8.34011068       6.91875076
Au       1.85717677      10.44884079       4.60164562
Au       0.00289616       8.35170742       9.22587795
Au      -0.01910418      10.44203992      11.51421294
Au       1.84051764       8.36676326      11.51900161
Au       1.84683228      10.44866850       9.22955869
Au       0.00488963       8.35952614      13.81417301
Au       0.00973122      10.44213496      16.11913834
Au       1.83361976       8.36681901      16.12415289
Au       1.84198908      10.44900921      13.83193507
Au       0.00758824      12.52489568       0.00852290
Au      -0.00951828      14.63288172       2.30414475
Au       1.85459476      12.53592941       2.30675339
Au       1.84183416      14.62601621      -0.00290188
Au       0.00314623      12.54340844       4.58300031
Au      -0.00241232      14.62631284       6.92613468
Au       1.85878071      12.54955248       6.92833902
Au       1.84440533      14.62331372       4.60092555
Au      -0.01169177      12.53656439       9.22321492
Au      -0.00512471      14.65262033      11.51779531
Au       1.85426874      12.52793092      11.50676797
Au       1.83570452      14.61309284       9.21380337
Au      -0.02412578      12.54445471      13.82908179
Au      -0.01273354      14.61776652      16.12993586
Au       1.85164741      12.52751104      16.12414135
Au       1.83876687      14.62995263      13.81797586
Au       3.69739394      -0.00320467       0.00233947
Au       3.69214628       2.08299138       2.31472889
Au       5.54398400       0.02122832       2.31083837
Au       5.52898294       2.09932829       0.00391806
Au       3.70270378      -0.00789602       4.61469426
Au       3.70054457       2.08249015       6.91522664
Au       5.54720968      -0.00403629       6.91509578
Au       5.54015022       2.07599281       4.59320563
Au       3.67885257       0.00689192       9.22117770
Au       3.68896476       2.11088574      11.52283741
Au       5.53860836       0.00065811      11.52576412
Au       5.54694564       2.09925791       9.21041296
Au       3.69475761      -0.01108147      13.83125576
Au       3.70369479       2.09189035      16.12181429
Au       5.54370485      -0.01047806      16.12176293
Au       5.54503034       2.10502219      13.81757949
Au       3.70924543       4.17197724       0.00168088
Au       3.68936236       6.28544942       2.29778447
Au       5.55010266       4.19099711       2.31594417
Au       5.52013765       6.26188519      -0.01039185
Au       3.69832466       4.18079603       4.59895993
Au       3.68407104       6.26811309       6.90937875
Au       5.53050938       4.18734113       6.91242679
Au       5.54562729       6.25642938       4.61316938
Au       3.68301909       4.18723320       9.21648765
Au       3.68982850       6.26630479      11.51845387
Au       5.54845568       4.18437805      11.52437266
Au       5.54929024       6.26226914       9.22024605
Au       3.69079404       4.17181950      13.81736656
Au       3.69555119       6.25656462      16.13379048
Au       5.55067456       4.19100718      16.12615576
Au       5.54332364       6.26098623      13.79478825
Au       3.68758533       8.37645378      -0.00907475
Au       3.71885233      10.44396032       2.30382062
Au       5.55692428       8.36308760       2.30148274
Au       5.54322560      10.42729467       0.00233799
Au       3.70207901       8.34943843       4.62070116
Au       3.69401722      10.44091657       6.92306021
Au       5.55479579       8.36288022       6.91115610
Au       5.54401422      10.43819125       4.60377144
Au       3.69809321       8.34801247       9.22418521
Au       3.70807162      10.42973742      11.51972673
Au       5.55445186       8.36561963      11.52736914
Au       5.55272714      10.45421068       9.20112452
Au       3.69333620       8.36926863      13.81547672
Au       3.69159745      10.44488345      16.13055486
Au       5.52902612       8.37168382      16.11968452
Au       5.54123355      10.44890453      13.80930158
Au       3.68756142      12.52178122       0.00871986
Au       3.70178162      14.62716232       2.30428450
Au       5.54527590      12.54307230       2.30451891
Au       5.54800666      14.61508680      -0.00087888
Au       3.68932164      12.53075014       4.61341526
Au       3.69030680      14.62987103       6.92597603
Au       5.53257796      12.54764855       6.90908721
Au       5.53067518      14.62569462       4.61560808
Au       3.69886490      12.54498365       9.19571983
Au       3.70030995      14.62607579      11.50892931
Au       5.53692807      12.53665914      11.52826149
Au       5.55601426      14.59750173       9.20098544
Au       3.69397396      12.52683639      13.80647540
Au       3.69517613      14.63082656      16.12378387
Au       5.55295083      12.53378361      16.10058427
Au       5.53776063      14.62228202      13.82572422
Au       7.40130657       0.00271973       0.01869291
Au       7.39934289       2.09678186       2.31839878
Au       9.23590347      -0.00213009       2.30456963
Au       9.23526854       2.08311958       0.02316229
Au       7.39663516      -0.00178917       4.63023759
Au       7.39201712       2.10118497       6.92398001
Au       9.25418541      -0.00477780       6.92708325
Au       9.23944278       2.05992933       4.60781382
Au       7.39072963      -0.00223485       9.20913991
Au       7.39227252       2.09126828      11.50931892
Au       9.23757166       0.00721833      11.50928418
Au       9.24468196       2.07318392       9.22657035
Au       7.40034515      -0.00944580      13.81370195
Au       7.39246804       2.08893092      16.13582033
Au       9.22671875       0.00886875      16.10869099
Au       9.22061130       2.08744734      13.82543305
Au       7.39986645       4.18229072       0.00564598
Au       7.37413981       6.25946315       2.30812606
Au       9.27666497       4.16472659       2.32579440
Au       9.24180614       6.27664780       0.00298536
Au       7.38427870       4.18008383       4.62563657
Au       7.40440259       6.26029684       6.90813283
Au       9.22356804       4.15430360       6.91044797
Au       9.23079998       6.26712801       4.60479362
Au       7.39772272       4.15860609       9.22512592
Au       7.38067002       6.26726725      11.51509776
Au       9.24196580       4.18208901      11.52622457
Au       9.24244389       6.28122429       9.22760119
Au       7.39458405       4.17940940      13.81381778
Au       7.39701437       6.26868618      16.10364016
Au       9.23337055       4.17494678      16.13958489
Au       9.21523242       6.26308446      13.82723785
Au       7.39538364       8.33739272      -0.03340039
Au       7.38042624      10.44031685       2.31946568
Au       9.25989157       8.34672597       2.27965098
Au       9.23664820      10.45200633      -0.00929362
Au       7.39167352       8.35593277       4.58876722
Au       7.38185830      10.43972432       6.91682372
Au       9.24231400       8.35122060       6.91646421
Au       9.26114867      10.42793477       4.61259384
Au       7.36978998       8.35201830       9.23015269
Au       7.40198216      10.43540499      11.51287961
Au       9.23939741       8.35636691      11.51522522
Au       9.23780288      10.44456397       9.21350414
Au       7.41307803       8.35204890      13.81350065
Au       7.41524913      10.43773069      16.12687971
Au       9.24201454       8.35277444      16.13106384
Au       9.24996781      10.44529003      13.82143310
Au       7.39360639      12.53953506      -0.00579981
Au       7.39560259      14.62875729       2.30313202
Au       9.23878292      12.51173593       2.30073167
Au       9.24848279      14.62265456      -0.00202248
Au       7.40069649      12.53597939       4.60246777
Au       7.38396179      14.60787988       6.89618831
Au       9.24499946      12.51793382       6.91040244
Au       9.22896111      14.60508835       4.58786082
Au       7.38678452      12.53057715       9.21499129
Au       7.38042772      14.61784615      11.52209838
Au       9.21823412      12.51803954      11.51285454
Au       9.23816420      14.62940725       9.21746444
Au       7.41835213      12.53534319      13.83395796
Au       7.38658772      14.62202697      16.12118161
Au       9.24167046      12.54128002      16.12715064
Au       9.23528965      14.61708471      13.82680431
Au      11.07559040      -0.00788950      -0.00293353
Au      11.09061727       2.11212816       2.28809357
Au      12.93420185       0.00490183       2.30766997
Au      12.93841556       2.09947743       0.00288177
Au      11.10728416       0.02519457       4.62671681
Au      11.09065334       2.08923784       6.91676632
Au      12.93979742       0.01524037       6.89004080
Au      12.94315482       2.09454124       4.60912703
Au      11.08677583      -0.00076176       9.22846069
Au      11.06840385       2.06961425      11.52833820
Au      12.94452019      -0.00122172      11.51224789
Au      12.93861299       2.09964718       9.19969788
Au      11.09064878      -0.00660842      13.81907996
Au      11.09109895       2.06463966      16.12814556
Au      12.91968567      -0.00129852      16.12252111
Au      12.94221268       2.09286687      13.82785855
Au      11.09466871       4.17926039      -0.00556273
Au      11.10084035       6.26835605       2.31326400
Au      12.93826981       4.19559641       2.30385169
Au      12.95567799       6.24864079       0.01904661
Au      11.09374615       4.18033048       4.60574049
Au      11.09695008       6.26092723       6.89900435
Au      12.92370233       4.16973928       6.89136875
Au      12.95260396       6.27874969       4.60717689
Au      11.09158640       4.17253792       9.21175752
Au      11.09675637       6.25914114      11.50324570
Au      12.93124295       4.20160832      11.52516054
Au      12.94811823       6.26534312       9.20878974
Au      11.07221563       4.17288526      13.82646443
Au      11.08752291       6.27278230      16.13689441
Au      12.92458572       4.17532480      16.12528318
Au      12.92255501       6.26042240      13.84211538
Au      11.08597966       8.36488686      -0.00603614
Au      11.08862086      10.45539176       2.30902511
Au      12.94206942       8.33255207       2.30245236
Au      12.93434757      10.44454157      -0.00923710
Au      11.09208876       8.33466879       4.61242100
Au      11.10851125      10.44908897       6.91466577
Au      12.94135533       8.36286395       6.91326374
Au      12.93608377      10.45071822       4.61238141
Au      11.08549823       8.34174573       9.21695841
Au      11.10549758      10.43533411      11.51716565
Au      12.93503818       8.33205824      11.52425339
Au      12.94106538      10.44119430       9.21204237
Au      11.09836356       8.35331236      13.84713016
Au      11.10265909      10.43839750      16.12739584
Au      12.92823114       8.36305273      16.11199377
Au      12.92997736      10.44084019      13.81091739
Au      11.09140146      12.53657016      -0.01577602
Au      11.09157574      14.61775993       2.27874480
Au      12.95226689      12.52619259       2.28898505
Au      12.93337761      14.62536061      -0.00488888
Au      11.08837192      12.54029804       4.61180234
Au      11.09643316      14.61639538       6.91446030
Au      12.96981970      12.55439978       6.89433855
Au      12.94214553      14.62352972       4.61539902
Au      11.10861985      12.54311243       9.21572824
Au      11.09656326      14.62682252      11.52842174
Au      12.93571793      12.52316340      11.51196360
Au      12.95359802      14.63408343       9.22491735
Au      11.07079654      12.55503045      13.81403561
Au      11.08806780      14.62756891      16.14210900
Au      12.92528219      12.51452187      16.12523866
Au      12.94204229      14.63572072      13.83239133
