256
Lattice="13.232637197895965 0.0 0.0 0.0 14.251850840249103 0.0 0.0 0.0 14.542993700070765" Properties=species:S:1:pos:R:3 id=sample_001549 pbc="F F F"
Fe       0.00409647      -0.01240865       0.00063720
Fe       0.00744603       1.79929174       1.81388728
Fe       1.66453129      -0.01415320       1.82431785
Fe       1.66667703       1.79376907      -0.00067765
Fe      -0.00428280       0.01410565       3.63318209
Fe       0.00796726       1.79051590       5.43337103
Fe       1.66374931      -0.00357118       5.47158457
Fe       1.66078982       1.77752080       3.64170239
Fe      -0.00820763       0.01230732       7.26486092
Fe       0.00476549       1.78520001       9.09853864
Fe       1.64444233      -0.00154885       9.07641430
Fe       1.66276188       1.78595429       7.25255579
Fe       0.00021488       0.00207906      10.90916692
Fe       0.00628753       1.77866121      12.73608137
Fe       1.65284356       0.01552812      12.73623716
Fe       1.64301373       1.78765819      10.92419212
Fe       0.02405173       3.55656715      -0.00630448
Fe       0.01394628       5.33692992       1.82538895
Fe       1.65667050       3.56002158       1.79969546
Fe       1.65515547       5.33752077       0.00561280
Fe       0.00374973       3.55613787       3.63657374
Fe      -0.00694558       5.32543528       5.46521441
Fe       1.64103758       3.54962884       5.44317560
Fe       1.64733004       5.34066022       3.64600552
Fe      -0.00071781       3.56181800       7.24809823
Fe       0.00812129       5.34955043       9.11042388
Fe       1.64325219       3.56353698       9.08957423
Fe       1.65751951       5.35295767       7.27750671
Fe       0.01791848       3.56597082      10.91262261
Fe       0.00358084       5.34262340      12.72402426
Fe       1.65121628       3.56860123      12.71375893
Fe       1.64650817       5.34967885      10.90352152
Fe      -0.01682955       7.12749015      -0.00690512
Fe       0.00587383       8.91737883       1.82133505
Fe       1.65750918       7.11473330       1.82008105
Fe       1.66059730       8.91769044      -0.01165617
Fe      -0.00177553       7.12170912       3.64251118
Fe       0.01746946       8.90404859       5.45740947
Fe       1.63137299       7.11992937       5.45578847
Fe       1.65641806       8.90265489       3.64163110
Fe      -0.01087999       7.12047894       7.26029332
Fe      -0.00055242       8.90513327       9.08745220
Fe       1.63701810       7.11027811       9.08152195
Fe       1.64227170       8.90011664       7.28937834
Fe       0.00434935       7.11738449      10.90755462
Fe       0.00206268       8.91504132      12.73747451
Fe       1.64889427       7.12805042      12.72618661
Fe       1.65432631       8.90771150      10.92569239
Fe      -0.01847799      10.69015470      -0.01478206
Fe      -0.01344472      12.48360882       1.82325313
Fe       1.64934712      10.67663267       1.82406838
Fe       1.64191103      12.47190975      -0.00452207
Fe      -0.01187945      10.68422818       3.64578277
Fe       0.00444343      12.46881101       5.42950421
Fe       1.65118791      10.68356073       5.45824456
Fe       1.65822127      12.45917964       3.64670368
Fe      -0.01122560      10.69740910       7.26920979
Fe       0.01146839      12.45633952       9.06712814
Fe       1.65117310      10.69552404       9.07440207
Fe       1.67332816      12.49323167       7.27986810
Fe      -0.00494950      10.68246341      10.90433896
Fe       0.01521316      12.47152749      12.72294322
Fe       1.65316484      10.69939204      12.74208221
Fe       1.64994765      12.46194510      10.92386169
Fe       3.31382957      -0.00286720      -0.00196640
Fe       3.31114950       1.78255743       1.82156527
Fe       4.97424711       0.00449996       1.82203011
Fe       4.98437946       1.77984238       0.00895106
Fe       3.31628947      -0.01412578       3.66635549
Fe       3.29944440       1.78116520       5.43530691
Fe       4.95583816       0.00654958       5.45234248
Fe       4.95822795       1.78641831       3.63172780
Fe       3.29642204      -0.00720613       7.27511065
Fe       3.29194365       1.78179007       9.09338635
Fe       4.96354118      -0.00743298       9.08051695
Fe       4.97021550       1.78182896       7.26524444
Fe       3.32112557      -0.00282814      10.90836168
Fe       3.31430771       1.78622981      12.72977507
Fe       4.97987487       0.00653662      12.71515102
Fe       4.97918605       1.77535294      10.90516796
Fe       3.30726490       3.56322475      -0.01389529
Fe       3.31904793       5.33684936       1.80990497
Fe       4.96875190       3.56384142       1.84025585
Fe       4.96550594       5.34795923      -0.00259308
Fe       3.30438360       3.55367199       3.64758698
Fe       3.33218549       5.33462631       5.45881944
Fe       4.96143616       3.56961837       5.45756515
Fe       4.96699942       5.34276426       3.62311554
Fe       3.29274810       3.56838544       7.26541906
Fe       3.30365911       5.34764263       9.08746914
Fe       4.96700432       3.55518312       9.09779337
Fe       4.96502234       5.32994606       7.28817162
Fe       3.29758754       3.56254110      10.90445049
Fe       3.30933832       5.35446651      12.72234789
Fe       4.96194378       3.56306929      12.73719309
Fe       4.95181361       5.34124715      10.90570862
Fe       3.33216758       7.13501211      -0.00276820
Fe       3.31440844       8.89643264       1.82202095
Fe       4.96056442       7.10935378       1.82164736
Fe       4.97370706       8.91132561      -0.01431836
Fe       3.30984172       7.14338272       3.63108695
Fe       3.29669739       8.91753180       5.46963917
Fe       4.94997747       7.14037214       5.48065745
Fe       4.94521986       8.89753182       3.64343942
Fe       3.31244397       7.12985774       7.26323741
Fe       3.30651664       8.90215009       9.08030053
Fe       4.96371973       7.11258783       9.09114516
Fe       4.95151122       8.88279769       7.26409676
Fe       3.30308920       7.14556120      10.89997964
Fe       3.28821366       8.89966900      12.71658600
Fe       4.93951627       7.11291936      12.72894626
Fe       4.96018076       8.91376490      10.91468731
Fe       3.30012382      10.69857226       0.00198752
Fe       3.30006058      12.45482821       1.81153395
Fe       4.95365987      10.68620084       1.81272285
Fe       4.97276838      12.47952554      -0.00213068
Fe       3.31073361      10.68612739       3.63877586
Fe       3.29721942      12.47647056       5.45492613
Fe       4.95762704      10.67981996       5.44209091
Fe       4.96923889      12.48208182       3.63292247
Fe       3.30106898      10.68015119       7.26807433
Fe       3.29591673      12.44897364       9.08494901
Fe       4.96350254      10.68596998       9.07855988
Fe       4.94604319      12.48695011       7.28242747
Fe       3.29801791      10.70630229      10.92057985
Fe       3.30205679      12.46025182      12.73200813
Fe       4.97550756      10.69496565      12.74106553
Fe       4.95923048      12.46997413      10.90451268
Fe       6.61616189       0.00157487       0.00353400
Fe       6.62124720       1.79351784       1.81954571
Fe       8.26252231      -0.00549168       1.82429463
Fe       8.28731901       1.78291142       0.01113910
Fe       6.62762452      -0.00378157       3.63073092
Fe       6.60132711       1.79169675       5.46048986
Fe       8.27206869       0.00794353       5.44623675
Fe       8.26561605       1.79653880       3.64605868
Fe       6.61183088       0.00233238       7.28576220
Fe       6.60886406       1.77889059       9.10248744
Fe       8.26528716       0.00029291       9.10260115
Fe       8.26212409       1.78805286       7.27717632
Fe       6.61233377       0.01525631      10.91133092
Fe       6.62037993       1.81121350      12.71127062
Fe       8.27117254      -0.01209793      12.73812604
Fe       8.26955425       1.77193940      10.89535668
Fe       6.59943671       3.56455847      -0.00517554
Fe       6.61809169       5.34640490       1.81564968
Fe       8.28394896       3.57855184       1.81390129
Fe       8.27706825       5.35624179      -0.00671756
Fe       6.61708720       3.56483538       3.62219948
Fe       6.62776654       5.34974589       5.46084701
Fe       8.26851860       3.54508271       5.45041277
Fe       8.27779044       5.34550867       3.63650495
Fe       6.64089357       3.56260693       7.26347144
Fe       6.62074259       5.34207949       9.09952132
Fe       8.27793963       3.56918288       9.08541496
Fe       8.28062759       5.34346711       7.26772950
Fe       6.61724804       3.56515065      10.90177923
Fe       6.61232660       5.32797596      12.73691925
Fe       8.27192328       3.55871171      12.74028645
Fe       8.27557572       5.34494617      10.91693698
Fe       6.61610031       7.13898500      -0.00896665
Fe       6.61692525       8.90698458       1.82152701
Fe       8.24995778       7.14125729       1.80608518
Fe       8.26519367       8.90258728       0.00866282
Fe       6.62783366       7.13440844       3.66223960
Fe       6.60948931       8.90802770       5.44421063
Fe       8.26880717       7.12136041       5.45950272
Fe       8.27823670       8.90789712       3.63586784
Fe       6.61271411       7.11725831       7.28359907
Fe       6.61888950       8.90082605       9.06988931
Fe       8.26997560       7.11337273       9.10299396
Fe       8.24917537       8.90736837       7.25740742
Fe       6.62668386       7.12383062      10.90609923
Fe       6.62252046       8.92470145      12.73581217
Fe       8.28069801       7.10704168      12.70213695
Fe       8.27966061       8.90551420      10.91079423
Fe       6.61807790      10.68635215      -0.00711997
Fe       6.61960531      12.48031820       1.82487687
Fe       8.26841981      10.69360449       1.80375644
Fe       8.26472580      12.45930143       0.00375512
Fe       6.62332582      10.69645129       3.64997957
Fe       6.60729091      12.46730221       5.44706263
Fe       8.26447037      10.67853452       5.46152879
Fe       8.27612465      12.47401655       3.63200165
Fe       6.61378402      10.68505399       7.26256444
Fe       6.60912286      12.46105972       9.09951680
Fe       8.26164893      10.68586292       9.08080383
Fe       8.27986971      12.46157748       7.27163765
Fe       6.63348135      10.68436645      10.89296590
Fe       6.61300160      12.46316537      12.71656046
Fe       8.27108089      10.66724815      12.72386334
Fe       8.26625988      12.47254143      10.90820616
Fe       9.93709659       0.00002155      -0.00932854
Fe       9.92005236       1.77736328       1.84013830
Fe      11.58147817      -0.00875371       1.84112659
Fe      11.57141872       1.78720586      -0.00110888
Fe       9.91936642       0.00156329       3.63468318
Fe       9.94121660       1.77558098       5.45919257
Fe      11.59191204       0.00698142       5.43951692
Fe      11.56739795       1.78753320       3.63458394
Fe       9.93243578       0.02334080       7.28721223
Fe       9.90204648       1.78967645       9.07985896
Fe      11.57300399      -0.01070939       9.07745168
Fe      11.57690532       1.78414420       7.27168163
Fe       9.93524490      -0.00606747      10.89418385
Fe       9.93945226       1.77197217      12.71653570
Fe      11.58592867       0.00914388      12.71840058
Fe      11.58474140       1.79339669      10.90624368
Fe       9.92197443       3.55249702       0.00760623
Fe       9.93415906       5.34523133       1.82307598
Fe      11.58900905       3.56561862       1.83015066
Fe      11.58511774       5.34486159       0.00183650
Fe       9.92197427       3.55401179       3.63696126
Fe       9.92402035       5.34152081       5.44015586
Fe      11.57790584       3.56992583       5.45398736
Fe      11.57075572       5.33485524       3.64605189
Fe       9.93962643       3.55701452       7.28265405
Fe       9.91405085       5.35491048       9.08392971
Fe      11.58331862       3.56428678       9.08240060
Fe      11.58327917       5.33540834       7.26546031
Fe       9.92314753       3.57899733      10.90660851
Fe       9.91024007       5.33867335      12.72667495
Fe      11.57987794       3.56386166      12.69639541
Fe      11.58010022       5.34298528      10.91932348
Fe       9.92600574       7.11091607       0.01110301
Fe       9.92344437       8.88769852       1.81320384
Fe      11.58032176       7.12452645       1.81179649
Fe      11.58316270       8.90007280      -0.01576994
Fe       9.92969448       7.11115503       3.65057836
Fe       9.91257336       8.92244290       5.45539771
Fe      11.57924572       7.12323958       5.44549500
Fe      11.58291970       8.90543887       3.64180481
Fe       9.93766869       7.10921959       7.27765478
Fe       9.93158123       8.91981236       9.08935972
Fe      11.56373449       7.12609870       9.10166572
Fe      11.58039417       8.91723148       7.27077189
Fe       9.94159437       7.13516197      10.91076353
Fe       9.93614730       8.89515289      12.72940328
Fe      11.60488598       7.12547128      12.72225663
Fe      11.58150321       8.90552911      10.90989669
Fe       9.91545148      10.67858434       0.00493876
Fe       9.92704102      12.47062268       1.82402762
Fe      11.55428248      10.67717637       1.81402667
Fe      11.58659040      12.46597828       0.01471910
Fe       9.92873839      10.69321548       3.62284572
Fe       9.92962201      12.48346552       5.45259532
Fe      11.58322321      10.69665884       5.46013224
Fe      11.58365589      12.46415108       3.63731126
Fe       9.91600594      10.68178854       7.26495328
Fe       9.91861944      12.45265111       9.10520236
Fe      11.57617897      10.69871715       9.10024706
Fe      11.57541331      12.48607908       7.26021117
Fe       9.93102838      10.69529272      10.89970395
Fe       9.93772697      12.47983159      12.71683073
Fe      11.58264678      10.68136861      12.72203915
Fe      11.55831313      12.46745704      10.91198547
