500
Lattice="68.88713575075424 0.0 0.0 0.0 68.88713575075424 0.0 0.0 0.0 68.88713575075424" Properties=species:S:1:pos:R:3 id=sample_001464 pbc="T T T"
Al      21.79082526      21.78544563      21.78054421
Al      23.81291863      23.80455688      21.78536112
Al      25.84373384      25.82567974      21.78722165
Al      27.85629741      27.86645123      21.76102543
Al      29.88547125      29.89120412      21.79502826
Al      31.89685409      31.89992704      21.77765084
Al      33.91890197      33.94680067      21.79390458
Al      35.95920805      35.94766048      21.79179961
Al      37.98723979      37.97839867      21.80108801
Al      40.00264736      40.01515999      21.77556009
Al      42.03832510      42.01443334      21.78119042
Al      44.06200702      44.06275258      21.77619145
Al      23.78739550      21.78201544      23.81204958
Al      25.82257535      23.81618603      23.81263154
Al      27.86993451      25.84214421      23.80767032
Al      29.88415001      27.86109961      23.80787367
Al      31.89688991      29.87808395      23.82751133
Al      33.93645138      31.90558517      23.80317640
Al      35.95808043      33.93829109      23.79902327
Al      37.98047586      35.94735736      23.81311975
Al      40.00710190      37.99116060      23.80560436
Al      42.03440868      40.00068741      23.81004508
Al      44.05343795      42.04353157      23.80888435
Al      25.82750930      21.78186253      25.83429656
Al      27.85274217      23.78829210      25.82834669
Al      29.87197705      25.84657684      25.82884063
Al      31.88951911      27.85440521      25.82680147
Al      33.93277125      29.88943491      25.83392741
Al      35.95941277      31.90663230      25.81235626
Al      37.99115690      33.92713458      25.81540184
Al      40.00486788      35.96386727      25.84220151
Al      42.01742178      37.98485362      25.85119572
Al      44.05433505      39.99586481      25.82554456
Al      46.08193947      42.06000309      25.83242941
Al      27.83913605      21.78287438      27.83928165
Al      29.88257973      23.81117185      27.86543844
Al      31.90805172      25.82494770      27.83905503
Al      33.92139833      27.87691806      27.85525692
Al      35.95687761      29.89637860      27.85248039
Al      37.96544316      31.90926939      27.86940966
Al      39.99692622      33.92313071      27.86901376
Al      42.02764215      35.95974567      27.85033174
Al      44.06109610      37.96708131      27.84937578
Al      46.08645810      40.03275501      27.86455063
Al      29.87767096      21.78470542      29.88599658
Al      31.90204684      23.81223796      29.87859345
Al      33.93229255      25.83654492      29.88518436
Al      35.94674767      27.85896005      29.87350146
Al      37.97263477      29.88888734      29.87490697
Al      40.00524683      31.91924316      29.89331960
Al      42.04488944      33.95051758      29.90114327
Al      44.04863178      35.97625705      29.88148161
Al      46.09085052      37.97774975      29.87682376
Al      31.91410554      21.78886280      31.90924308
Al      33.93734081      23.82334734      31.90818568
Al      35.96342234      25.82328276      31.90900006
Al      37.99998482      27.85752739      31.90097254
Al      40.00427626      29.86327570      31.90051669
Al      42.03708592      31.91204505      31.90821045
Al      44.05392667      33.92711899      31.90251032
Al      46.09593987      35.97384849      31.91686495
Al      33.92486408      21.79758352      33.93216251
Al      35.97459342      23.80735842      33.92971434
Al      37.98554470      25.82562142      33.93518830
Al      40.01129625      27.84562153      33.92188915
Al      42.02007484      29.86317110      33.91766146
Al      44.05354525      31.91044622      33.92546899
Al      46.06878153      33.94026346      33.92689174
Al      48.10705979      35.94463878      33.93899615
Al      35.96058203      21.79403396      35.96866042
Al      37.99960097      23.79457407      35.96159721
Al      40.00610483      25.82564900      35.95531204
Al      42.02825227      27.84348296      35.95228238
Al      44.05627780      29.87214976      35.96779204
Al      46.07876281      31.90377494      35.96043476
Al      48.09136000      33.91603946      35.96033937
Al      37.98423838      21.78601373      37.97942644
Al      40.00494010      23.80241473      37.97858546
Al      42.03866757      25.85220701      37.98472475
Al      44.04919221      27.87262325      37.98169600
Al      46.08229196      29.89340394      37.99637024
Al      40.00194071      21.79991017      39.99670466
Al      42.03692366      23.80289227      40.00174189
Al      44.05660807      25.83157579      40.01970665
Al      46.06343017      27.86366010      40.00799457
Al      42.04136048      21.77441599      42.03726416
Al      44.05525810      23.81259733      42.03937808
Al      46.08081978      25.83289577      42.03801928
Al      44.04855714      21.79302663      44.05805114
Al      21.79841361      23.80480415      23.81509499
Al      23.79620826      25.83421943      23.81233462
Al      25.82140135      27.85675158      23.79359686
Al      27.85673407      29.89506611      23.80299867
Al      29.87499866      31.91012524      23.80727558
Al      31.91140711      33.94242904      23.82105462
Al      33.93943506      35.94458443      23.79761286
Al      35.95806111      37.97419287      23.79745437
Al      37.97594744      40.00693597      23.79129279
Al      39.99285156      42.03153734      23.79651026
Al      42.03790995      44.06690464      23.81113102
Al      23.81123878      23.81940601      25.84990052
Al      25.83969699      25.83587323      25.83462020
Al      27.85057534      27.87814322      25.82416848
Al      29.88652606      29.88539581      25.84271865
Al      31.91770850      31.91692422      25.84904610
Al      33.92615027      33.93982431      25.81836384
Al      35.96719324      35.97134153      25.82496586
Al      37.99115162      37.97325940      25.83995295
Al      39.99678520      40.00409129      25.83552489
Al      42.03447199      42.03364030      25.84105496
Al      44.05666587      44.07096963      25.82922870
Al      25.83004516      23.81834182      27.87229714
Al      27.86916557      25.83006290      27.85331145
Al      29.89859734      27.85196352      27.85353674
Al      31.91007134      29.88668583      27.84488947
Al      33.91361745      31.91054693      27.85377245
Al      35.95351297      33.93638502      27.84842767
Al      37.97805168      35.96169811      27.85466554
Al      40.00561320      37.98840115      27.84850433
Al      42.04281677      40.01007062      27.85688663
Al      44.04893995      42.02319665      27.85124820
Al      27.84465120      23.79082746      29.88574364
Al      29.89158745      25.84652410      29.89140059
Al      31.90404445      27.85428014      29.87153029
Al      33.93392551      29.88483070      29.89033263
Al      35.95763456      31.91859786      29.86479386
Al      37.96968565      33.91927865      29.90233999
Al      40.01286507      35.96215780      29.87484328
Al      42.04086185      37.97940998      29.90157320
Al      44.07582144      40.00208992      29.89750504
Al      29.87028681      23.81129834      31.90106996
Al      31.89579586      25.84604540      31.89168611
Al      33.93414971      27.85799570      31.89783472
Al      35.95185992      29.88553649      31.90320067
Al      37.96714642      31.91396032      31.89631052
Al      40.00425820      33.91759419      31.90318543
Al      42.02085682      35.95432406      31.90113549
Al      44.06483771      37.98645913      31.92633886
Al      46.07841724      40.00357232      31.91073310
Al      31.90196963      23.80508871      33.95131630
Al      33.94945823      25.83040134      33.92213869
Al      35.96670043      27.85325450      33.93303310
Al      37.99555113      29.88501769      33.92091920
Al      40.00733809      31.91785346      33.91762498
Al      42.03826186      33.92391062      33.93103614
Al      44.05491394      35.96262325      33.92761719
Al      46.08004851      37.98642260      33.93360677
Al      33.93623525      23.81212616      35.96333719
Al      35.96156435      25.83118010      35.95553135
Al      37.98758269      27.84912403      35.97555242
Al      40.00430389      29.88828089      35.95801470
Al      42.03909798      31.89720998      35.97513609
Al      44.05880734      33.92221804      35.95979208
Al      46.07960980      35.95781301      35.96487558
Al      35.98342143      23.81455644      37.98372459
Al      37.96444958      25.83275020      37.99111705
Al      40.01577916      27.86449632      38.00557635
Al      42.04044740      29.88254520      37.98522610
Al      44.03757863      31.90254427      37.97999709
Al      46.07481672      33.94198660      37.97380678
Al      37.98158652      23.81047487      39.99510338
Al      40.01677802      25.80986956      40.01396095
Al      42.03896290      27.85302777      40.01426786
Al      44.07793480      29.89418651      40.02100472
Al      46.09460147      31.90875521      40.01158763
Al      40.01221573      23.80528579      42.03386977
Al      42.01846120      25.83795716      42.02706314
Al      44.05245902      27.86543295      42.03721991
Al      42.04637044      23.80651866      44.06483046
Al      44.05688969      25.82204993      44.04657879
Al      21.79835863      25.82695061      25.85268502
Al      23.80686786      27.84656125      25.84135344
Al      25.83363913      29.89056500      25.85979646
Al      27.84560479      31.91156321      25.83607582
Al      29.87334102      33.94645438      25.83625594
Al      31.91174218      35.96592508      25.85354829
Al      33.92223526      37.99529870      25.83832876
Al      35.94378163      39.99488495      25.83826538
Al      37.97953990      42.05404793      25.85140306
Al      40.00860233      44.07289403      25.81236908
Al      42.03856436      46.08864203      25.83707927
Al      23.80840769      25.82716669      27.85926486
Al      25.82347840      27.87086395      27.84260132
Al      27.85395060      29.88039056      27.84808987
Al      29.88042209      31.91528157      27.88103437
Al      31.92513676      33.93227835      27.85434991
Al      33.90509749      35.94807994      27.85654105
Al      35.95647414      37.98883840      27.85575487
Al      37.98594272      39.99952793      27.86131821
Al      40.01265792      42.02562394      27.86051733
Al      42.01304770      44.06468864      27.87884354
Al      25.85229757      25.82319888      29.89067827
Al      27.85325881      27.86273123      29.89862955
Al      29.89308856      29.87408044      29.87592672
Al      31.90921566      31.90256959      29.89559733
Al      33.91733057      33.92593223      29.89633379
Al      35.94895452      35.95380464      29.87684602
Al      37.98872925      38.00839523      29.88857360
Al      40.00721943      40.01526703      29.87574671
Al      42.03246173      42.01818910      29.87729590
Al      27.86391047      25.82917055      31.91267359
Al      29.88457726      27.86296298      31.91166252
Al      31.89739625      29.88193853      31.90477132
Al      33.93062942      31.89135365      31.90406710
Al      35.94129865      33.93380178      31.90337159
Al      37.98900818      35.96078005      31.90666167
Al      39.98791557      37.98023284      31.91035001
Al      42.04558336      40.02244644      31.92897931
Al      44.06403011      42.02955318      31.90907492
Al      29.86180621      25.83675354      33.93276953
Al      31.89315735      27.86330972      33.91022959
Al      33.94224631      29.87037830      33.94437361
Al      35.96720183      31.89222986      33.92538245
Al      37.97773318      33.94385918      33.92374691
Al      40.01981309      35.95056456      33.94009309
Al      42.04746582      37.98737750      33.93530630
Al      44.04258615      40.00645292      33.93777565
Al      31.89564806      25.82930566      35.96481613
Al      33.92876723      27.87171207      35.95191884
Al      35.95508853      29.90215813      35.97077189
Al      37.98959648      31.90344377      35.98564355
Al      39.99143491      33.93232372      35.95113736
Al      42.01716755      35.95209832      35.95573489
Al      44.06741482      37.99389034      35.96032319
Al      33.94454628      25.85093360      37.96873065
Al      35.93953521      27.85767817      37.98138728
Al      37.98278597      29.89310627      37.99597141
Al      39.99615420      31.91534648      37.97663118
Al      42.02518209      33.93908730      37.98183016
Al      44.05837070      35.95972270      37.98131584
Al      35.94945940      25.83529528      40.00814311
Al      37.96554621      27.86001121      40.01203354
Al      40.00444158      29.87533956      40.00241803
Al      42.03214349      31.90912462      40.01189551
Al      44.05888006      33.93867545      40.01472108
Al      37.98621030      25.80766049      42.02671321
Al      40.02313427      27.89241088      42.03175190
Al      42.02870833      29.87045869      42.05693913
Al      44.05248318      31.90848249      42.02168385
Al      39.98488837      25.83646362      44.07299165
Al      42.01828226      27.86222312      44.05091512
Al      42.03365899      25.83193661      46.08978438
Al      21.77273777      27.83227303      27.84960195
Al      23.79077043      29.89076003      27.86296947
Al      25.82632689      31.89151515      27.86573090
Al      27.87051870      33.92866460      27.85455374
Al      29.86844412      35.96872834      27.85349937
Al      31.91848047      37.97293237      27.84104992
Al      33.91989094      40.00820490      27.85718147
Al      35.97677859      42.03381592      27.86903909
Al      37.99171511      44.05886263      27.86845718
Al      39.99178393      46.07286982      27.86244797
Al      23.80550109      27.85680816      29.87776151
Al      25.82523815      29.87153346      29.88226146
Al      27.85326984      31.89581158      29.87495596
Al      29.86793039      33.93029014      29.90230375
Al      31.92041140      35.94980729      29.89396988
Al      33.93249384      37.99711250      29.89057411
Al      35.95970463      40.02755791      29.88108296
Al      37.97911349      42.04427288      29.89773220
Al      40.00179123      44.04867979      29.87170424
Al      25.83247170      27.85999005      31.89911582
Al      27.86597677      29.87976558      31.92171466
Al      29.88987632      31.89624935      31.90209501
Al      31.89627376      33.94170073      31.87658740
Al      33.93452501      35.96641701      31.90342754
Al      35.95113148      37.97908678      31.90142622
Al      37.96061122      40.00076546      31.92331833
Al      40.00049836      42.04695179      31.89826906
Al      42.03863311      44.05845381      31.91772736
Al      27.86787991      27.83522903      33.91688600
Al      29.89456776      29.87131570      33.91940650
Al      31.89212139      31.90668229      33.95126838
Al      33.94319234      33.93071382      33.94032358
Al      35.95161627      35.95454309      33.94695868
Al      37.98264025      38.00080859      33.94550853
Al      40.02030302      39.99916729      33.94562302
Al      42.02455263      42.04841487      33.92859700
Al      29.87113703      27.86293034      35.96360858
Al      31.91649874      29.86862653      35.97850116
Al      33.93196399      31.90341742      35.95811311
Al      35.96375083      33.94665360      35.95379534
Al      37.99229336      35.93265333      35.97313979
Al      40.02593150      37.99405097      35.96401674
Al      42.04357256      39.99713453      35.96341157
Al      31.90578014      27.85220997      37.95591033
Al      33.93337321      29.86927379      38.00372262
Al      35.96523163      31.91335156      37.97195131
Al      37.97623889      33.92974151      37.97474006
Al      39.99337376      35.97540895      37.98019341
Al      42.02231913      37.95754780      37.97804240
Al      33.93860057      27.86226258      40.01652429
Al      35.96062216      29.88125320      40.02424037
Al      37.99767275      31.90704682      40.01207541
Al      40.01053979      33.94395670      40.01009505
Al      42.03163285      35.95165309      40.00445675
Al      35.96248465      27.86874381      42.03880429
Al      37.97950344      29.87394709      42.03564270
Al      40.01788799      31.88891396      42.04674245
Al      42.02930243      33.91621924      42.04191174
Al      37.99817890      27.84239710      44.06912486
Al      40.01156410      29.89432006      44.05710941
Al      42.03785079      31.92732158      44.06509152
Al      39.99508237      27.83931686      46.08546052
Al      21.79848420      29.89471685      29.87385670
Al      23.80671373      31.91224743      29.88096104
Al      25.81827636      33.92846409      29.86810768
Al      27.85892054      35.94013107      29.89002368
Al      29.87323032      37.95855193      29.88564071
Al      31.89435311      40.01497239      29.90450368
Al      33.92471164      42.03212118      29.88528139
Al      35.94525490      44.05182857      29.89499134
Al      37.98347276      46.09832327      29.87878054
Al      23.80230621      29.88280224      31.92673047
Al      25.83871928      31.91884344      31.91608620
Al      27.84539564      33.92892154      31.90477409
Al      29.87096137      35.94983470      31.89971365
Al      31.88073342      37.98499033      31.90822150
Al      33.93478753      40.00264121      31.89880129
Al      35.95675165      42.02316025      31.90760767
Al      37.98408213      44.05949212      31.91391995
Al      40.01188626      46.09748553      31.93304808
Al      25.83330080      29.89271793      33.94057075
Al      27.86453995      31.90808701      33.93225727
Al      29.86735859      33.93257480      33.92132959
Al      31.91174490      35.94861827      33.93939549
Al      33.95262744      37.99880269      33.94360545
Al      35.94696465      39.98766490      33.95220196
Al      37.98820226      42.02230543      33.93636442
Al      40.00474949      44.06529993      33.94704056
Al      27.85793312      29.88542265      35.95334856
Al      29.88226629      31.89831379      35.95526883
Al      31.91902054      33.94767810      35.97427609
Al      33.93464660      35.94353253      35.98463153
Al      35.94940646      37.96592399      35.95934997
Al      37.96433753      40.00806878      35.95293909
Al      40.00447188      42.04528294      35.94310488
Al      29.88987506      29.89372163      37.99245377
Al      31.89697035      31.90669737      38.00169017
Al      33.93568958      33.94331154      37.99136708
Al      35.96467259      35.93960953      37.99247385
Al      37.98983158      37.98659065      37.97477766
Al      40.01803535      39.99549770      37.98547798
Al      31.88799528      29.88445783      40.01262096
Al      33.92486544      31.90207141      40.02544765
Al      35.96077172      33.92476789      40.01683600
Al      37.98416047      35.96166371      40.00024695
Al      40.00139402      37.99911892      39.99640935
Al      33.93795081      29.87502321      42.02593639
Al      35.96801938      31.90259732      42.03010389
Al      37.98422235      33.93881076      42.01925791
Al      40.01365982      35.95688793      42.03029440
Al      35.95398131      29.88923005      44.06747486
Al      37.96803094      31.89371146      44.05182914
Al      40.01963759      33.95433417      44.05541453
Al      37.98485521      29.89182379      46.08910535
Al      40.00555713      31.90248393      46.06640007
Al      21.78925302      31.91434775      31.90163724
Al      23.83264957      33.93534512      31.89907494
Al      25.82570382      35.95983808      31.91543850
Al      27.86628552      37.98566800      31.92201222
Al      29.87746641      40.00043917      31.90077219
Al      31.89943621      42.02373616      31.90260666
Al      33.92059560      44.05281052      31.91285149
Al      35.95159308      46.09057956      31.89538265
Al      23.80396932      31.90975163      33.92631599
Al      25.81575677      33.92951710      33.94585537
Al      27.86929248      35.95058527      33.94721513
Al      29.87446558      37.98993570      33.92818971
Al      31.91137406      40.01460441      33.93245577
Al      33.94055933      42.04271655      33.92134097
Al      35.94983745      44.06551839      33.91520669
Al      37.98928059      46.06614731      33.94140130
Al      25.82994143      31.90731328      35.97425702
Al      27.85922105      33.92492640      35.95252458
Al      29.89549652      35.97436706      35.97553991
Al      31.90249939      37.98229061      35.95613729
Al      33.92842280      39.99564019      35.95594751
Al      35.95166596      42.02927327      35.95065192
Al      37.98650691      44.05225089      35.97517263
Al      27.84845367      31.91524104      37.98131222
Al      29.87609967      33.94577788      37.97257633
Al      31.90044429      35.97992450      37.97834118
Al      33.95365613      37.99379299      37.96907989
Al      35.96380695      40.01596708      37.99067169
Al      37.98873853      42.02653872      37.97928124
Al      29.88698464      31.89282133      40.00500482
Al      31.89478227      33.93971930      40.01115845
Al      33.93521532      35.96291885      40.01197768
Al      35.97080930      37.99247549      40.00346856
Al      37.97554151      40.00305013      40.00325527
Al      31.90753519      31.92418102      42.02315453
Al      33.93890211      33.92766858      42.03433412
Al      35.96122637      35.94188623      42.04643162
Al      37.98106177      37.98931378      42.03093283
Al      33.92245444      31.91247172      44.07489132
Al      35.94065059      33.93514928      44.08217081
Al      37.99033243      35.95190404      44.05195866
Al      35.97038104      31.90643013      46.08529819
Al      37.98576507      33.92417257      46.07615821
Al      21.79743767      33.93406884      33.93731398
Al      23.81828699      35.95671728      33.93267985
Al      25.82584769      37.98669184      33.94479390
Al      27.85684589      40.00909116      33.91519132
Al      29.87408560      42.02745074      33.92983493
Al      31.90221491      44.05717494      33.93318132
Al      33.94311365      46.08827321      33.92548252
Al      35.94840407      48.09690156      33.92896394
Al      23.82398408      33.92634702      35.95947395
Al      25.83513012      35.95792942      35.95607182
Al      27.88293077      37.97591204      35.95200237
Al      29.88868638      40.00156664      35.97007002
Al      31.91544281      42.02985987      35.95862038
Al      33.91691141      44.05406584      35.94754868
Al      35.95642496      46.10039466      35.94718125
Al      25.83615631      33.93033500      37.96428057
Al      27.85483077      35.95698973      37.98745569
Al      29.87779740      37.99114349      38.00337485
Al      31.90589154      39.99803198      37.97854170
Al      33.94168544      42.04263235      37.97468795
Al      35.94152023      44.05945285      37.97556158
Al      27.84860588      33.94322997      40.00203623
Al      29.88497379      35.95913583      39.99993683
Al      31.89992258      37.98428704      40.00939886
Al      33.92024301      39.99243057      40.00362462
Al      35.95917214      42.03804809      40.01196759
Al      29.87347716      33.92527570      42.03995830
Al      31.90185553      35.95823895      42.04306209
Al      33.92883219      37.96651622      42.03481677
Al      35.95246241      40.02618192      42.04836751
Al      31.90583268      33.93791813      44.06526387
Al      33.93974018      35.94300848      44.05862626
Al      35.96587129      37.97508287      44.06798133
Al      33.91216963      33.92398698      46.10036003
Al      35.94950870      35.95464623      46.08958370
Al      35.95847957      33.93913304      48.11501441
Al      21.78687485      35.97890667      35.95799391
Al      23.82813882      37.98392662      35.95159281
Al      25.83693444      40.00821235      35.95700823
Al      27.85745065      42.03501101      35.93046801
Al      29.88748326      44.06531940      35.96361060
Al      31.91511732      46.08455022      35.96238776
Al      33.94355775      48.11952607      35.95706009
Al      23.80191308      35.94165200      37.97136667
Al      25.82995276      37.97656605      38.00349565
Al      27.84532998      40.01136847      37.98404898
Al      29.87748444      42.03848194      37.96848378
Al      31.90228957      44.06392248      37.98657418
Al      33.93041332      46.08749455      37.98399427
Al      25.83444486      35.96106114      40.01848825
Al      27.85938787      37.98715533      39.98681084
Al      29.88737016      40.01712800      40.00499985
Al      31.88619727      42.02941321      40.01225492
Al      33.93421940      44.06325192      40.03269577
Al      27.85308680      35.95491002      42.04902482
Al      29.87924695      37.97796301      42.02554001
Al      31.91413498      40.00033379      42.03177611
Al      33.93764211      42.02762321      42.03733562
Al      29.88402427      35.93820466      44.05654159
Al      31.90757533      37.97336034      44.05460150
Al      33.93730976      40.00502401      44.06442051
Al      31.92396371      35.96628956      46.06786794
Al      33.93318676      37.97923626      46.10018193
Al      33.94055563      35.96583597      48.11439358
Al      21.76510041      37.97365927      37.99194074
Al      23.81637086      40.03200488      37.99120016
Al      25.83812713      42.05062385      37.98649566
Al      27.85669115      44.06018807      37.97572213
Al      29.88113393      46.07482940      37.98459661
Al      23.81724884      37.97741288      39.98884118
Al      25.82892201      40.01979764      40.00824081
Al      27.85839902      42.02716432      40.03616483
Al      29.87678101      44.06650684      40.02104617
Al      31.91439902      46.06197330      39.99881572
Al      25.82354909      37.98248550      42.03099787
Al      27.85682127      40.01951472      42.03225943
Al      29.88157703      42.04931487      42.03152454
Al      31.89225179      44.05980346      42.02813810
Al      27.85375384      37.97138153      44.04413024
Al      29.88728503      40.02759930      44.06353379
Al      31.91743424      42.03553562      44.05081569
Al      29.89061166      37.97902118      46.07540751
Al      31.90955884      39.99802624      46.07979973
Al      21.77063029      39.99619509      39.99313732
Al      23.80343112      42.02717785      40.00926615
Al      25.83214561      44.06500357      40.00229487
Al      27.84860138      46.08710234      40.01792604
Al      23.80518864      40.00664542      42.04298239
Al      25.84912948      42.03410375      42.02588996
Al      27.84576085      44.05765591      42.02986987
Al      25.84190058      40.00400933      44.05715910
Al      27.85026943      42.02535044      44.05847223
Al      27.88147449      40.00002319      46.08335177
Al      21.78430645      42.05253336      42.04810192
Al      23.81939063      44.04063155      42.03636869
Al      25.83371914      46.08367557      42.04328904
Al      23.80906123      42.02767726      44.04900793
Al      25.83842311      44.04529896      44.06218154
Al      25.81949051      42.02697745      46.08918633
Al      21.78594773      44.05716701      44.06239539
