500
Lattice="25.68900580899417 0.0 0.0 0.0 34.89371012006252 0.0 0.0 0.0 31.598945866396846" Properties=species:S:1:pos:R:3 id=sample_000941 pbc="F F F"
Si      -0.00531685      -0.00204110      -0.00262215
Si       0.01163032       3.48106639       3.15588565
Si       2.55839899       0.00168406       3.12948070
Si       2.57776157       3.50139586       0.00771002
Si      -0.01870886       0.00751190       6.29201102
Si      -0.01440021       3.49543540       9.47694796
Si       2.57463070       0.00579305       9.47216903
Si       2.56240510       3.48589411       6.30150799
Si       0.02876371      -0.00772320      12.66278541
Si      -0.00049648       3.48840510      15.78486284
Si       2.55367857       0.03091582      15.81262598
Si       2.55807910       3.52491608      12.67220973
Si      -0.01118782      -0.03877245      18.97470495
Si       0.01389243       3.47609098      22.13329616
Si       2.56910239      -0.00792175      22.12679705
Si       2.55080133       3.49088717      18.94221731
Si      -0.00852431       0.00251805      25.28106263
Si      -0.01263486       3.48903750      28.44910343
Si       2.57399968       0.00362605      28.45706836
Si       2.54559395       3.47353669      25.26828230
Si      -0.01376970       6.98490951      -0.00578182
Si      -0.02129161      10.45615841       3.15973141
Si       2.55479189       6.97219860       3.14399630
Si       2.58539635      10.48466308       0.00401837
Si      -0.02692328       6.98311639       6.30580605
Si      -0.01860152      10.49278753       9.48861243
Si       2.55448545       6.99056889       9.48499300
Si       2.56162494      10.46763627       6.30354146
Si       0.01205534       6.98969829      12.64436181
Si      -0.01206378      10.49648732      15.79437957
Si       2.57675425       6.98884635      15.79730608
Si       2.56623127      10.44881456      12.64539483
Si      -0.01815751       6.99729074      18.94841679
Si      -0.00797361      10.46561726      22.10942871
Si       2.56331296       6.98468304      22.10111545
Si       2.57536688      10.45840912      18.95284872
Si       0.02374317       6.96547388      25.27704413
Si       0.01651105      10.46054716      28.42268859
Si       2.57725794       6.98890265      28.42299718
Si       2.55576310      10.45570757      25.28479613
Si       0.00071209      13.96452578       0.01393147
Si      -0.00005313      17.45667221       3.17418063
Si       2.57498811      13.92648859       3.14504587
Si       2.56473579      17.43913895       0.00901249
Si      -0.00512355      13.97124953       6.32912668
Si       0.01835200      17.45191174       9.46982642
Si       2.59540494      13.96417430       9.46697325
Si       2.54149544      17.42928487       6.31454825
Si      -0.02363016      13.96604321      12.63481261
Si      -0.01343125      17.45947187      15.79466170
Si       2.54471459      13.95726566      15.79602221
Si       2.56062183      17.45553803      12.63793049
Si       0.01632924      13.95222351      18.94442124
Si      -0.00236816      17.44667067      22.11971785
Si       2.58435903      13.96507041      22.12076837
Si       2.57973198      17.45799778      18.98543935
Si       0.00214443      13.94622457      25.28636203
Si      -0.00256385      17.46800398      28.44518351
Si       2.58767407      13.93449439      28.43594114
Si       2.56559620      17.45223673      25.27116273
Si      -0.00438363      20.92469317      -0.00116871
Si       0.00752435      24.46458397       3.16129780
Si       2.56319716      20.93634806       3.16606099
Si       2.58442829      24.41285992      -0.01183086
Si      -0.00230503      20.91775065       6.33109485
Si       0.00332110      24.44176307       9.45103029
Si       2.57940772      20.94497801       9.45270401
Si       2.57712350      24.44150094       6.30342370
Si       0.00582730      20.94010086      12.63328765
Si      -0.01962023      24.42762627      15.81391566
Si       2.56796549      20.92169588      15.81790265
Si       2.56582395      24.43834628      12.65933682
Si       0.00190425      20.91289364      18.94536728
Si      -0.01303068      24.45940597      22.13183405
Si       2.57703718      20.94745789      22.11984429
Si       2.55777259      24.44988782      18.96204333
Si      -0.00343657      20.94982085      25.26802963
Si      -0.01305124      24.41401123      28.43828555
Si       2.57557897      20.92158746      28.47206712
Si       2.56009147      24.42354525      25.29684409
Si       0.02077962      27.89083926       0.00448553
Si      -0.00590647      31.41461091       3.15543959
Si       2.58292007      27.92959742       3.13485224
Si       2.60415637      31.38460329      -0.00013641
Si       0.00878944      27.93424019       6.31676864
Si       0.00783434      31.36403072       9.46847139
Si       2.56934332      27.90918393       9.48768611
Si       2.56418511      31.43350468       6.30300521
Si      -0.00822878      27.90724811      12.63551340
Si      -0.00735749      31.42086735      15.81021304
Si       2.57779870      27.92156198      15.77790797
Si       2.54132869      31.40179114      12.63756713
Si       0.00910588      27.90586786      18.97964315
Si       0.01234631      31.40181501      22.09660975
Si       2.54963492      27.92746503      22.12790694
Si       2.57812664      31.38950320      18.92896047
Si       0.00435236      27.92875118      25.29276940
Si      -0.01048937      31.41779184      28.43120750
Si       2.55761720      27.91056909      28.45729947
Si       2.59487540      31.38716828      25.27482765
Si       5.13540947      -0.00403070       0.01073607
Si       5.12573774       3.49204900       3.16944280
Si       7.73245629       0.00690903       3.15321767
Si       7.71029961       3.49650097       0.00013635
Si       5.15477281      -0.01273303       6.31439075
Si       5.11709936       3.49059942       9.46199817
Si       7.71968262       0.01783864       9.48761373
Si       7.70106206       3.50875798       6.33101067
Si       5.16482445       0.00909655      12.62646277
Si       5.15731980       3.48735963      15.82534398
Si       7.70092898      -0.00967101      15.80601489
Si       7.70145880       3.50353392      12.64282701
Si       5.12563801       0.01870499      18.95993851
Si       5.12987727       3.48740480      22.13272579
Si       7.70318343      -0.00277173      22.11284461
Si       7.70534001       3.49286673      18.96524207
Si       5.15798701      -0.00078799      25.27138165
Si       5.14760670       3.49090666      28.44916725
Si       7.71129481      -0.00015665      28.45752740
Si       7.71350610       3.48826314      25.26885385
Si       5.13456109       6.97320989       0.01014404
Si       5.12817609      10.47178059       3.15367256
Si       7.69479192       6.96747028       3.15955203
Si       7.70135392      10.45318936      -0.00390105
Si       5.14661885       6.98896241       6.32541269
Si       5.13861014      10.47344198       9.47914646
Si       7.70166956       6.98652453       9.47982036
Si       7.69745109      10.44150965       6.31722580
Si       5.12913920       6.98372435      12.62884983
Si       5.14910130      10.43653538      15.77480500
Si       7.70378244       6.98863921      15.80721485
Si       7.71565359      10.44189334      12.65685838
Si       5.11806747       6.99665391      18.95136456
Si       5.12629200      10.45917164      22.12816537
Si       7.70751486       7.00297165      22.13902546
Si       7.70810651      10.47800323      18.95824024
Si       5.14291128       6.98027832      25.28990974
Si       5.14909364      10.47119919      28.46075607
Si       7.68800608       6.96749652      28.42287101
Si       7.69977190      10.46632293      25.29022601
Si       5.14264064      13.98725915       0.03340408
Si       5.13037515      17.43554851       3.13636686
Si       7.67417447      13.94457048       3.15181212
Si       7.71958090      17.44985692       0.02170366
Si       5.14894390      13.97671242       6.31850544
Si       5.12594354      17.44315220       9.47660291
Si       7.69708693      13.97958624       9.47755325
Si       7.72080366      17.41011875       6.30713402
Si       5.10281028      13.98142935      12.63619709
Si       5.11602210      17.45714695      15.80654682
Si       7.71962603      13.95288364      15.79373587
Si       7.70514233      17.43473471      12.65873479
Si       5.14546170      13.95240715      18.96137819
Si       5.14821546      17.45261124      22.11211339
Si       7.70370424      13.96800267      22.11285271
Si       7.68637749      17.45244219      18.97230720
Si       5.16016352      13.96827041      25.29862276
Si       5.13980531      17.46031211      28.43294868
Si       7.70130945      13.95230480      28.44581542
Si       7.70520304      17.41818518      25.27073973
Si       5.11170426      20.94336013      -0.00025764
Si       5.15931376      24.41660880       3.14062703
Si       7.71553580      20.94101894       3.15365602
Si       7.71784233      24.40121880       0.01244082
Si       5.13039996      20.94890167       6.32034559
Si       5.11216042      24.41431231       9.49429851
Si       7.71800694      20.93178358       9.48590866
Si       7.71551990      24.41401117       6.30939097
Si       5.13657750      20.93349744      12.63889422
Si       5.14382014      24.43190965      15.80608370
Si       7.72692438      20.95651216      15.79701933
Si       7.70673325      24.41774082      12.65714552
Si       5.12249322      20.93103054      18.97084357
Si       5.13755374      24.41756140      22.10195157
Si       7.70087810      20.94609298      22.10749703
Si       7.69264998      24.44116708      18.96929510
Si       5.13482762      20.93082637      25.28506912
Si       5.11636072      24.44298128      28.45177973
Si       7.71288255      20.93259860      28.45465233
Si       7.68480912      24.41476667      25.27734930
Si       5.10134524      27.91161500       0.00001466
Si       5.13522932      31.41765104       3.15355654
Si       7.68313808      27.90109654       3.15089607
Si       7.71905463      31.42195858       0.00119371
Si       5.13654204      27.90535846       6.30227586
Si       5.12000931      31.41390511       9.46793940
Si       7.69528082      27.91964233       9.48482982
Si       7.72114965      31.37955786       6.33389293
Si       5.14801465      27.90714136      12.64054523
Si       5.14356541      31.42468441      15.79892081
Si       7.71354450      27.91189715      15.81091148
Si       7.69345015      31.41360635      12.67684689
Si       5.14640583      27.90851879      18.98951281
Si       5.15415438      31.40693091      22.13839633
Si       7.72133818      27.90140031      22.12539201
Si       7.69818058      31.38251309      18.96113111
Si       5.14613373      27.91295714      25.26125225
Si       5.13864822      31.42204838      28.43547790
Si       7.72848857      27.93346480      28.44266016
Si       7.73065048      31.42186250      25.26865532
Si      10.26094033      -0.01151249       0.01707477
Si      10.28908512       3.47831130       3.14858659
Si      12.84307619      -0.01977053       3.15640943
Si      12.85929844       3.48904159       0.02934651
Si      10.27410088       0.02164308       6.30446114
Si      10.27961656       3.49390392       9.48698155
Si      12.84223389       0.01610077       9.51104729
Si      12.84196096       3.47926095       6.30038075
Si      10.28408697       0.00021383      12.65644684
Si      10.28972663       3.49078054      15.79197369
Si      12.84187568       0.03035610      15.79722578
Si      12.85266777       3.46363155      12.65188824
Si      10.25426917      -0.01670618      18.96061685
Si      10.25924774       3.48189407      22.11673575
Si      12.84721521      -0.01165472      22.11135225
Si      12.84773853       3.47018236      18.95853017
Si      10.27676237      -0.00731682      25.27060920
Si      10.23849458       3.47560702      28.44565027
Si      12.84782751       0.00310179      28.39896258
Si      12.84513128       3.49252601      25.29041754
Si      10.25734192       6.98684758      -0.02315550
Si      10.30925085      10.46703267       3.18298579
Si      12.83156795       6.97075545       3.17612330
Si      12.83687258      10.48889138      -0.00435351
Si      10.27700476       6.96922456       6.32017523
Si      10.28921438      10.48093527       9.47482585
Si      12.83795305       6.98547298       9.50704041
Si      12.84033941      10.46614614       6.32975783
Si      10.25856831       6.96386703      12.66082276
Si      10.27878931      10.46346065      15.80247422
Si      12.84239361       7.00280999      15.78914598
Si      12.85075767      10.44640162      12.63853853
Si      10.29424947       6.98798257      18.96516358
Si      10.28041425      10.46965798      22.08511170
Si      12.84433349       6.96587871      22.12688966
Si      12.85970828      10.47347269      18.96587074
Si      10.24376278       6.99286639      25.28233991
Si      10.29404031      10.46294428      28.43375551
Si      12.83399112       6.98563269      28.46805760
Si      12.85548743      10.47092933      25.26960678
Si      10.26605733      13.95455231      -0.01221946
Si      10.27931622      17.43042457       3.15577542
Si      12.82489186      13.95925420       3.15104103
Si      12.84447201      17.44252091       0.01425441
Si      10.28991878      13.95498887       6.33496132
Si      10.24722127      17.42533318       9.48315843
Si      12.84397242      13.96645896       9.47398435
Si      12.84587117      17.45787545       6.33567987
Si      10.27980186      13.95449908      12.64379411
Si      10.27069642      17.42838445      15.77286577
Si      12.84414377      13.97268963      15.81266494
Si      12.86237140      17.45155922      12.61838470
Si      10.26978110      13.94721154      18.96467963
Si      10.24725246      17.45648464      22.11153222
Si      12.86403818      13.96730540      22.14373356
Si      12.85944732      17.42750767      18.95455019
Si      10.27103104      13.96825827      25.29231599
Si      10.27376994      17.43773545      28.43550278
Si      12.86028147      13.95363196      28.42551983
Si      12.84531453      17.45145861      25.25987358
Si      10.28647877      20.92014092      -0.01107695
Si      10.25073668      24.42793459       3.14279520
Si      12.84948790      20.94309922       3.16985577
Si      12.81669484      24.44476741      -0.02444625
Si      10.29501864      20.93427112       6.32572683
Si      10.25719811      24.39857601       9.47151431
Si      12.85996035      20.93879816       9.49209081
Si      12.86313523      24.42581340       6.32970574
Si      10.26191117      20.94007314      12.64731447
Si      10.29118259      24.42628726      15.80729398
Si      12.84442994      20.93818997      15.77906475
Si      12.84063623      24.41652577      12.64654062
Si      10.27351378      20.95407396      18.95617856
Si      10.26555210      24.39544002      22.10548512
Si      12.84333589      20.94909639      22.12034625
Si      12.81167699      24.44087172      18.95254050
Si      10.26312880      20.91300985      25.28855462
Si      10.27941406      24.41755314      28.42944052
Si      12.83794203      20.90970495      28.47113506
Si      12.86761550      24.40343876      25.26703115
Si      10.28458582      27.91341077      -0.01184229
Si      10.26904874      31.39322871       3.14927851
Si      12.83352581      27.92545671       3.15098210
Si      12.84346530      31.38566295      -0.00684996
Si      10.27267522      27.92025351       6.32446623
Si      10.27994285      31.42078053       9.45238718
Si      12.83772688      27.89866759       9.49196927
Si      12.85139145      31.41206946       6.32005830
Si      10.29190373      27.92793181      12.67984460
Si      10.26461983      31.39637918      15.79039640
Si      12.85152029      27.93610160      15.79463028
Si      12.84481295      31.39755406      12.63710631
Si      10.28386640      27.90668785      18.95504072
Si      10.27512094      31.43076838      22.11234056
Si      12.86311864      27.91581770      22.10458488
Si      12.83924903      31.40350501      18.96412000
Si      10.26740468      27.90888684      25.28081834
Si      10.28398349      31.41357859      28.42998098
Si      12.85082491      27.91376813      28.41971139
Si      12.86180307      31.43363202      25.30745761
Si      15.40922954      -0.00587944       0.01137282
Si      15.41079013       3.50947435       3.16461046
Si      17.98449822       0.00145169       3.16653486
Si      17.99957916       3.48963598       0.00655517
Si      15.40321187       0.00742085       6.34896839
Si      15.43509010       3.47658588       9.47892109
Si      17.96854669       0.01062891       9.48920105
Si      17.97010599       3.47414786       6.30606069
Si      15.40241695       0.00623810      12.63358120
Si      15.41906314       3.47872479      15.76782796
Si      17.97764525       0.01586658      15.78958512
Si      17.98887248       3.49101931      12.63174517
Si      15.42509503      -0.01080953      18.95732527
Si      15.40643417       3.47504542      22.12792251
Si      17.99155452      -0.00776437      22.13151335
Si      17.98876220       3.49292467      18.98298514
Si      15.41339176       0.00650007      25.28278388
Si      15.41150876       3.50294830      28.44919469
Si      17.98795213       0.01428134      28.42830368
Si      17.97752205       3.47061088      25.25855688
Si      15.43231641       6.98304609       0.01843671
Si      15.37595821      10.47492386       3.18995372
Si      17.99416548       6.98897957       3.15235836
Si      17.98221974      10.46230480       0.00863199
Si      15.42512809       6.97919348       6.33091545
Si      15.40150383      10.46273839       9.47447723
Si      17.97032310       6.95975144       9.49988724
Si      18.00142745      10.46220746       6.30264587
Si      15.42873767       6.98012202      12.61591700
Si      15.38650794      10.47468989      15.79687148
Si      17.98123441       6.97704288      15.79801751
Si      17.99144205      10.47586931      12.66053739
Si      15.41008302       6.98734859      18.94991435
Si      15.41386015      10.49967138      22.11754292
Si      17.97829699       6.98159222      22.09395868
Si      17.98738825      10.49348450      18.96569653
Si      15.39972048       6.96457221      25.26876017
Si      15.42159594      10.46980008      28.43003034
Si      17.99075353       6.97183847      28.43969230
Si      17.97628720      10.43695888      25.27785916
Si      15.39901112      13.95592664       0.00387836
Si      15.40023081      17.41186020       3.16068771
Si      17.99036873      13.95995237       3.17278400
Si      17.95808550      17.43452451       0.01401893
Si      15.42230154      13.95465994       6.30989846
Si      15.39910340      17.44108648       9.46927546
Si      17.96686249      14.00194526       9.48846959
Si      17.97598022      17.44554651       6.32688470
Si      15.40856153      13.98969162      12.61619392
Si      15.41384216      17.43532080      15.82225225
Si      17.97636801      13.95925212      15.77263235
Si      17.96636523      17.45360888      12.62300105
Si      15.40631280      13.93144407      18.97245982
Si      15.40022156      17.43389447      22.11260988
Si      18.00090561      13.96702415      22.11202222
Si      18.01885567      17.46188907      18.97150434
Si      15.45510586      13.96541055      25.28614835
Si      15.42192663      17.46253288      28.43462397
Si      17.96309920      13.93393250      28.45066915
Si      18.00030652      17.43238579      25.31435078
Si      15.39348817      20.93663094       0.00598837
Si      15.40945971      24.42077626       3.15283795
Si      18.00409629      20.94040584       3.13725678
Si      18.00637401      24.42153715       0.00420294
Si      15.41174126      20.96234838       6.33056917
Si      15.40993009      24.41628691       9.47676189
Si      17.96571725      20.95610847       9.48599475
Si      17.96263666      24.42453757       6.31657532
Si      15.38924786      20.93472432      12.65085999
Si      15.41749920      24.43453351      15.80536600
Si      17.99168488      20.92267465      15.78608498
Si      17.98591708      24.42935815      12.63235507
Si      15.41460171      20.93704766      18.97168351
Si      15.42920537      24.39803021      22.10157521
Si      17.94359144      20.95184865      22.12675003
Si      17.99303515      24.44075858      18.97299154
Si      15.42316222      20.94330185      25.25869319
Si      15.41579066      24.44081823      28.43216088
Si      17.96428792      20.95872515      28.42819734
Si      17.97661554      24.42179091      25.25845755
Si      15.43541738      27.90933439       0.00771879
Si      15.39899281      31.41256592       3.18841036
Si      17.96636372      27.92299935       3.18852158
Si      17.96584069      31.40655203       0.01355633
Si      15.40838157      27.93477607       6.31372007
Si      15.40208669      31.40285858       9.46972452
Si      18.00455761      27.93568040       9.47680937
Si      17.95482353      31.41551569       6.32541872
Si      15.40223297      27.92772189      12.64413948
Si      15.42471096      31.37194036      15.80936025
Si      17.99808518      27.90887626      15.84412564
Si      17.96632053      31.38883228      12.62224514
Si      15.43826149      27.93896030      18.96809495
Si      15.41298442      31.40818470      22.09993220
Si      18.01554235      27.92253119      22.09499510
Si      17.98419568      31.40502385      18.97161717
Si      15.40265923      27.93901583      25.29382046
Si      15.41315806      31.42091716      28.45165270
Si      17.97566406      27.90008361      28.44324406
Si      17.98809707      31.40252601      25.30028020
Si      20.54256546       0.00669476       0.00520632
Si      20.56907631       3.47827943       3.16237005
Si      23.11789998      -0.00708215       3.14050898
Si      23.09918695       3.47187760      -0.02202624
Si      20.55621581       0.01921516       6.31741233
Si      20.54611593       3.49723433       9.49398748
Si      23.12577144      -0.00832069       9.46469003
Si      23.11128653       3.47902603       6.33357996
Si      20.55854359      -0.00659526      12.63751392
Si      20.54201216       3.47541755      15.80909178
Si      23.12199856      -0.02162369      15.82138977
Si      23.12515732       3.47345475      12.65164253
Si      20.55334767      -0.00214261      18.96984142
Si      20.56359307       3.49894514      22.10733412
Si      23.10548029      -0.00143588      22.11001823
Si      23.13336105       3.49905477      18.96365434
Si      20.53470269       0.00711013      25.27480697
Si      20.55448603       3.46863082      28.44469516
Si      23.11978907      -0.00595842      28.45576117
Si      23.10635524       3.48534070      25.29358435
Si      20.54531153       6.97498838       0.00641033
Si      20.52795211      10.45875672       3.17167746
Si      23.11634772       6.98382557       3.14661258
Si      23.12135408      10.47106534      -0.01124117
Si      20.54928198       6.98081696       6.29652251
Si      20.56877370      10.47142724       9.46558949
Si      23.14446346       6.96561968       9.49906018
Si      23.12231755      10.45158087       6.31437969
Si      20.57168181       6.97259755      12.60671580
Si      20.54597983      10.46365062      15.79428716
Si      23.11821570       7.00414586      15.80887280
Si      23.12725965      10.47218039      12.65109670
Si      20.54406649       6.98610199      18.97884543
Si      20.53672145      10.45421062      22.13803825
Si      23.10503519       6.98860143      22.10879030
Si      23.11769669      10.46242568      18.93375286
Si      20.53390575       6.96676988      25.27384635
Si      20.53973903      10.46607183      28.45208306
Si      23.08826721       6.99791417      28.43298999
Si      23.10546553      10.45503114      25.27160467
Si      20.51977688      13.97070696      -0.00490171
Si      20.53221676      17.45734043       3.14673063
Si      23.10522959      13.94446085       3.16618170
Si      23.11869238      17.43345566       0.00573041
Si      20.55892584      13.97114950       6.30875863
Si      20.57137878      17.43669654       9.47021537
Si      23.12699738      13.95335964       9.49448574
Si      23.10254522      17.43383966       6.31926607
Si      20.53537714      13.98490601      12.63210183
Si      20.57742715      17.44896132      15.80700720
Si      23.10231713      13.94458297      15.79796422
Si      23.14876331      17.43946552      12.64850616
Si      20.53080626      13.97679994      18.97660531
Si      20.53906911      17.44673162      22.11797231
Si      23.11443985      13.94390703      22.11578886
Si      23.10605531      17.45171760      18.95069674
Si      20.56747644      13.97288741      25.28390915
Si      20.55145877      17.44468530      28.44093140
Si      23.11735956      13.97709159      28.44683710
Si      23.12549862      17.43322384      25.27444968
Si      20.57793871      20.94253650       0.01394476
Si      20.55924683      24.42146071       3.17041384
Si      23.14017478      20.92679407       3.16650781
Si      23.10177249      24.40238396      -0.00302881
Si      20.53752503      20.96471938       6.32513611
Si      20.55026111      24.42756091       9.48183628
Si      23.12765702      20.94905246       9.47217307
Si      23.12570192      24.42226214       6.31978726
Si      20.56512282      20.95560285      12.63849155
Si      20.52410154      24.41923797      15.79681082
Si      23.11955661      20.90883609      15.81426333
Si      23.15667561      24.42908544      12.65087839
Si      20.56270689      20.94819668      18.95670327
Si      20.54221529      24.45332351      22.11811867
Si      23.11147708      20.94433191      22.15343584
Si      23.11750611      24.46411584      18.98145069
Si      20.56962700      20.96946586      25.26037097
Si      20.54608022      24.42321582      28.45471666
Si      23.10356604      20.93191938      28.44722656
Si      23.11929133      24.42387091      25.27454018
Si      20.55799074      27.92212036      -0.03391640
Si      20.56792310      31.39929658       3.15280319
Si      23.11701898      27.89851947       3.15363137
Si      23.11186826      31.43235690       0.01686162
Si      20.57640811      27.90817620       6.29970363
Si      20.54451172      31.40275170       9.49388326
Si      23.13055828      27.90207225       9.46517588
Si      23.11576185      31.41990627       6.32174225
Si      20.52122739      27.93154309      12.61398341
Si      20.53569938      31.41874722      15.79970038
Si      23.10547920      27.92881862      15.81593212
Si      23.10641819      31.40162432      12.62511053
Si      20.51944441      27.90088661      18.96056694
Si      20.54287549      31.40482126      22.11433671
Si      23.10994860      27.93773813      22.13133118
Si      23.11927181      31.42092687      18.95815479
Si      20.55402830      27.88922268      25.27221705
Si      20.54215582      31.41630088      28.44623407
Si      23.11217597      27.92563973      28.45034617
Si      23.10933784      31.40097467      25.29809592
