256
Lattice="20.04419378361675 0.0 0.0 0.0 23.141680076384322 0.0 0.0 0.0 27.30377109220361" Properties=species:S:1:pos:R:3 id=sample_000714 pbc="F F F"
Si      -0.01969611      -0.00080742       0.00377180
Si       0.00900480       2.88950372       3.39637517
Si       2.49075566       0.02028025       3.42734297
Si       2.50799719       2.89648337      -0.01207512
Si      -0.01118870       0.00769293       6.82234900
Si       0.00301382       2.87342472      10.24218107
Si       2.50483956      -0.00982491      10.23646132
Si       2.50210018       2.91296706       6.81517273
Si      -0.01545169      -0.00080851      13.65724450
Si      -0.01535941       2.87603669      17.06049793
Si       2.51635885      -0.01250941      17.07865203
Si       2.49812206       2.89465871      13.65748492
Si      -0.00297816      -0.00935905      20.47603006
Si       0.00586761       2.90618928      23.89626104
Si       2.50271502       0.00046410      23.90032035
Si       2.50237401       2.89459344      20.47423518
Si       0.00011750       5.77777927      -0.01124099
Si       0.00830522       8.67629455       3.41885375
Si       2.48215784       5.78806203       3.42394921
Si       2.50235624       8.67907528       0.00390157
Si       0.01630466       5.77426854       6.82910187
Si      -0.01335690       8.67346706      10.25911349
Si       2.52778310       5.77359655      10.23669795
Si       2.52223312       8.67112696       6.83302590
Si      -0.00266504       5.78968015      13.66135560
Si       0.00378285       8.68138176      17.06608336
Si       2.49560612       5.77203970      17.06887210
Si       2.52941436       8.68492806      13.62886755
Si       0.00455879       5.78565538      20.46154059
Si      -0.00158417       8.67559597      23.90948555
Si       2.51080450       5.77460658      23.88639186
Si       2.51068200       8.67149935      20.47749525
Si       0.00331510      11.55740133       0.00069581
Si       0.00570147      14.46170542       3.42340199
Si       2.47966507      11.57648730       3.42369594
Si       2.50465810      14.47162542      -0.01443064
Si      -0.01961486      11.56482636       6.83035828
Si       0.00087145      14.45009252      10.23657606
Si       2.51469213      11.56479534      10.22904391
Si       2.49898348      14.47821366       6.81357796
Si      -0.00259833      11.56510170      13.64443179
Si       0.01345002      14.46885126      17.07669020
Si       2.49661471      11.58157993      17.07925029
Si       2.49709721      14.47206618      13.64901044
Si      -0.00474212      11.57612312      20.47002604
Si      -0.00667384      14.45437170      23.89024215
Si       2.49607001      11.57400725      23.89775536
Si       2.49731740      14.45314076      20.48106689
Si      -0.00235538      17.35991808      -0.02236856
Si      -0.00866881      20.24268038       3.41314832
Si       2.50277289      17.35121222       3.40543221
Si       2.51923778      20.23422162      -0.01765700
Si      -0.00523973      17.35514017       6.81634778
Si       0.00072423      20.24970341      10.25350507
Si       2.50734059      17.34787976      10.23397944
Si       2.49611339      20.23244473       6.82523889
Si      -0.01108250      17.36982554      13.64956486
Si      -0.00818709      20.26293625      17.06841534
Si       2.50180691      17.34763164      17.07227844
Si       2.52523837      20.22785728      13.64044054
Si       0.00494642      17.35291349      20.46863010
Si       0.00236794      20.23420123      23.87438603
Si       2.49136988      17.35540296      23.89952175
Si       2.49452103      20.24562192      20.48866962
Si       5.01013982      -0.00617503      -0.00333902
Si       5.00678473       2.88189932       3.41922101
Si       7.51618366       0.00252046       3.41911783
Si       7.51455738       2.90050900      -0.00849251
Si       5.01468203      -0.00456284       6.82319051
Si       5.01501262       2.90583211      10.25506848
Si       7.52017130       0.00056691      10.25152510
Si       7.51254195       2.87865153       6.81742015
Si       4.99537361      -0.00704463      13.64904357
Si       5.01906735       2.88642668      17.07131025
Si       7.50843194      -0.00383265      17.07250667
Si       7.52055238       2.89221130      13.66153357
Si       5.00952923       0.00422010      20.47666455
Si       5.01416572       2.89612969      23.89360944
Si       7.51071505       0.00730461      23.88976077
Si       7.50447760       2.89657409      20.45994880
Si       5.02770076       5.78330700       0.00265075
Si       5.02083107       8.67869643       3.42781429
Si       7.51459908       5.77779290       3.40201535
Si       7.52254412       8.66520596       0.00239526
Si       5.00259130       5.77911496       6.81025450
Si       5.01098622       8.68320483      10.23922501
Si       7.52096267       5.78474242      10.24370273
Si       7.52697591       8.67650551       6.82245762
Si       5.01450379       5.78240113      13.66896643
Si       5.01382685       8.68236791      17.06475395
Si       7.51462427       5.77568488      17.06090926
Si       7.49892034       8.67045593      13.64767816
Si       5.01887313       5.79229708      20.48656458
Si       5.00384034       8.69583827      23.88398055
Si       7.53392747       5.77919862      23.89762096
Si       7.50663821       8.67981584      20.49558310
Si       5.01087877      11.56270079       0.01230447
Si       5.01022491      14.45867519       3.39294846
Si       7.53145971      11.58901743       3.44052942
Si       7.51928290      14.46546460       0.00731039
Si       5.01742109      11.58175480       6.83504327
Si       5.01427416      14.45831289      10.22929533
Si       7.51031951      11.58539973      10.24400909
Si       7.52138814      14.44567607       6.83112988
Si       5.01384959      11.58494271      13.65092211
Si       5.01373787      14.45963372      17.07155639
Si       7.51914766      11.56714128      17.06676545
Si       7.52604425      14.45181403      13.65185081
Si       5.01042708      11.57883939      20.47628765
Si       5.01564166      14.46917901      23.88883036
Si       7.51682956      11.55519944      23.88832064
Si       7.51361645      14.44067151      20.48510633
Si       5.01108384      17.35923881       0.00738003
Si       5.00740517      20.26159352       3.40931045
Si       7.51693439      17.34716192       3.42427536
Si       7.52041081      20.22575835      -0.00411431
Si       5.04328412      17.35505537       6.80285659
Si       5.01595311      20.24133225      10.22159502
Si       7.51355499      17.34964788      10.24179349
Si       7.50551794      20.24392620       6.82587062
Si       5.01091042      17.35170972      13.61856488
Si       5.03963152      20.25792289      17.06001502
Si       7.50648112      17.34446206      17.06912056
Si       7.51739839      20.24667496      13.66472014
Si       5.01242282      17.33933117      20.48574680
Si       5.02574052      20.23805992      23.88614772
Si       7.52857037      17.34462713      23.90495437
Si       7.52483418      20.24476510      20.49063563
Si      10.01550368       0.00951312      -0.00229277
Si      10.03181448       2.89405207       3.40722025
Si      12.52706971       0.01632665       3.43000628
Si      12.51550666       2.89041236      -0.00989702
Si      10.01341171      -0.00691786       6.82368955
Si      10.03580494       2.90861689      10.23878813
Si      12.52205840       0.00046323      10.24180207
Si      12.52250148       2.89046304       6.83776717
Si      10.01918854      -0.00463015      13.63708590
Si      10.04205226       2.90723330      17.06971919
Si      12.53387098       0.00560665      17.06435380
Si      12.51855974       2.88664205      13.66013788
Si      10.01083778       0.00444055      20.48367435
Si      10.03918323       2.89028211      23.90190633
Si      12.52506902      -0.00292974      23.89700782
Si      12.52725030       2.90573822      20.48252548
Si      10.03561064       5.79119040      -0.00347160
Si      10.02416460       8.68188666       3.40205475
Si      12.50134550       5.78812972       3.37828379
Si      12.54909371       8.69266977       0.00721125
Si      10.02683337       5.79524721       6.84830211
Si       9.99989853       8.67672268      10.21884674
Si      12.53044311       5.79512569      10.24050752
Si      12.51888970       8.69774411       6.83483367
Si      10.02492092       5.78546430      13.64579735
Si      10.01795979       8.68130616      17.06704483
Si      12.52316602       5.77480910      17.05790843
Si      12.54083739       8.66522405      13.64908618
Si      10.03373573       5.78668789      20.48601179
Si      10.02716373       8.66069083      23.89341979
Si      12.52184128       5.78469906      23.87751961
Si      12.51976267       8.66072604      20.48010944
Si      10.03703670      11.57477499      -0.00091230
Si      10.01029100      14.47851307       3.42199373
Si      12.53790168      11.56550010       3.41711599
Si      12.53157995      14.47187068      -0.00009461
Si      10.01891820      11.56176365       6.81818603
Si      10.01152152      14.46528830      10.22931210
Si      12.53359551      11.57765424      10.24849765
Si      12.53337476      14.46130833       6.85233913
Si      10.02351642      11.56818209      13.64275061
Si      10.01014165      14.47024178      17.06655636
Si      12.53835364      11.55741416      17.07003127
Si      12.54211513      14.46753692      13.66081255
Si      10.03265630      11.57578420      20.47472217
Si      10.01801307      14.47197862      23.88003134
Si      12.53053005      11.56915326      23.88163926
Si      12.53240030      14.45671929      20.47273801
Si      10.02375356      17.36375602       0.00361776
Si      10.03261558      20.23404073       3.43405624
Si      12.51133203      17.35742556       3.40323238
Si      12.51995871      20.25592415      -0.00698102
Si      10.03307495      17.35526128       6.81962744
Si      10.03281854      20.23409634      10.24788734
Si      12.52403637      17.34919091      10.24513213
Si      12.51601701      20.25133466       6.82253375
Si      10.02070062      17.37100059      13.65205440
Si      10.02164944      20.24007203      17.04908208
Si      12.53934484      17.33784523      17.08088532
Si      12.51976709      20.24356263      13.63882056
Si       9.99920007      17.35062829      20.47044216
Si      10.03035710      20.24327530      23.87288110
Si      12.52863484      17.35228758      23.90953335
Si      12.52347593      20.23106683      20.48589798
Si      15.01061095       0.00889421       0.00143183
Si      15.04168914       2.88943775       3.40165986
Si      17.54064215      -0.01174709       3.41189741
Si      17.53864363       2.88693669      -0.00564442
Si      15.03720140      -0.00578063       6.83826502
Si      15.04652963       2.90643755      10.24521699
Si      17.54675160       0.01333102      10.22377785
Si      17.54954439       2.88637518       6.82763686
Si      15.04075688      -0.01531115      13.66071601
Si      15.04251730       2.89220770      17.08720548
Si      17.52054401       0.00548084      17.06644303
Si      17.51722095       2.88170465      13.67657838
Si      15.04081980       0.00507555      20.48738749
Si      15.02467218       2.89123231      23.90571749
Si      17.52447930      -0.00983892      23.86176572
Si      17.52505064       2.90610352      20.48386877
Si      15.02955778       5.79488449       0.00266389
Si      15.04742919       8.68066312       3.41815778
Si      17.55042309       5.78080220       3.39870013
Si      17.54583463       8.66768082      -0.01153866
Si      15.02302766       5.78709025       6.82325432
Si      15.03510130       8.67095549      10.24596415
Si      17.53704676       5.77133048      10.23156714
Si      17.53337744       8.68109411       6.83613860
Si      15.04039055       5.76249954      13.65772717
Si      15.05138019       8.69000228      17.06966032
Si      17.54241512       5.78800315      17.05743875
Si      17.53995617       8.67873505      13.65899962
Si      15.03018814       5.77540335      20.47484982
Si      15.03921143       8.66427196      23.89582205
Si      17.54722631       5.78668359      23.89496722
Si      17.53253359       8.66993844      20.47458285
Si      15.01993086      11.56212191      -0.00828823
Si      15.04389814      14.47349066       3.44076604
Si      17.55307574      11.57278851       3.40067187
Si      17.54938354      14.45913511      -0.00731305
Si      15.05050622      11.58604440       6.83023076
Si      15.02594946      14.45619399      10.23671141
Si      17.52626518      11.56116705      10.22624762
Si      17.54013991      14.46870645       6.83215760
Si      15.04826745      11.57511005      13.66311174
Si      15.01334827      14.46423031      17.05598682
Si      17.54765130      11.58144789      17.08431122
Si      17.52312159      14.43946620      13.65370374
Si      15.03589561      11.58631139      20.48550045
Si      15.02986902      14.47282935      23.87521622
Si      17.53304866      11.56159002      23.88782617
Si      17.55491869      14.45903609      20.46773589
Si      15.04296596      17.36283650       0.00134649
Si      15.03424735      20.25236622       3.41915327
Si      17.53641936      17.36014357       3.41654073
Si      17.55038874      20.23666152       0.01232314
Si      15.02274924      17.37355953       6.84792777
Si      15.02187012      20.24188945      10.24255544
Si      17.54128950      17.35693893      10.26163933
Si      17.53326493      20.24769762       6.81582296
Si      15.02956658      17.34990598      13.65234200
Si      15.03390527      20.25767676      17.05126516
Si      17.54457679      17.35799689      17.06151160
Si      17.53286817      20.22240644      13.66117346
Si      15.03748786      17.35123899      20.46546784
Si      15.01682547      20.24581366      23.91398302
Si      17.52945003      17.35946453      23.89038747
Si      17.52820725      20.25322892      20.47055288
