654
Lattice="75.23233092067557 0.0 0.0 0.0 75.23233092067557 0.0 0.0 0.0 75.23233092067557" Properties=species:S:1:pos:R:3 id=sample_000195 pbc="T T T"
Al      23.55413386      23.60414527      23.61746570
Al      25.58200228      25.61271636      23.57002784
Al      27.63318197      27.63294959      23.58906926
Al      29.63338025      29.65171908      23.55493950
Al      31.69174527      31.65607835      23.55137605
Al      33.70142035      33.71478746      23.55969324
Al      35.69925118      35.73255230      23.56161727
Al      37.72532682      37.76000738      23.59341897
Al      39.77396722      39.79740325      23.58443896
Al      41.80118341      41.80586791      23.55630269
Al      43.81453958      43.79489289      23.54260805
Al      45.85522960      45.86639715      23.58197022
Al      47.88004079      47.85731714      23.59699418
Al      25.59850271      23.53884661      25.58715424
Al      27.63353510      25.56875818      25.57632940
Al      29.66049569      27.61561858      25.60951588
Al      31.67171926      29.64805391      25.58645960
Al      33.70465728      31.66972895      25.57553832
Al      35.69149972      33.69090682      25.57458847
Al      37.70415076      35.71537389      25.61113144
Al      39.76801121      37.72020368      25.61060795
Al      41.80635572      39.73983151      25.61178557
Al      43.81227747      41.76895230      25.58648761
Al      45.88213705      43.81029130      25.60410874
Al      47.89944375      45.85335168      25.57779566
Al      27.64065897      23.59072641      27.61589446
Al      29.63108262      25.59741240      27.64758452
Al      31.68896367      27.61590023      27.65607071
Al      33.68847670      29.64797248      27.67687735
Al      35.71504300      31.67491906      27.61791691
Al      37.72723183      33.66587744      27.60664430
Al      39.82424206      35.71935115      27.63920270
Al      41.83152607      37.76032131      27.63572211
Al      43.84210357      39.75998058      27.58529423
Al      45.82884967      41.79689321      27.60275151
Al      47.85109475      43.83369024      27.61280226
Al      49.85816610      45.84795489      27.63995943
Al      29.65535842      23.56647339      29.59707964
Al      31.65206337      25.57919454      29.63659108
Al      33.71422333      27.61849133      29.61406971
Al      35.73749748      29.63318379      29.65805846
Al      37.78984601      31.67929271      29.65443315
Al      39.76632855      33.68227181      29.66541607
Al      41.82110055      35.73310901      29.64196204
Al      43.81119341      37.73596473      29.68772591
Al      45.83236804      39.76813754      29.62670518
Al      47.87104509      41.79134532      29.65117358
Al      49.88264112      43.80896891      29.65204006
Al      31.65541527      23.56158112      31.67681182
Al      33.70799391      25.59686948      31.65303623
Al      35.70532287      27.58989505      31.65303539
Al      37.76242189      29.65846583      31.69206028
Al      39.77187164      31.66464606      31.66497863
Al      41.80307817      33.68476560      31.66986673
Al      43.85475204      35.70276192      31.64729516
Al      45.84741599      37.74960341      31.69902205
Al      47.86041747      39.79358820      31.65479587
Al      49.88838405      41.79483511      31.68827649
Al      33.68166858      23.59335800      33.70281750
Al      35.69919606      25.57789544      33.69728165
Al      37.76124744      27.62933136      33.72482800
Al      39.72772991      29.66920733      33.66156699
Al      41.79698004      31.65413178      33.70713172
Al      43.80450727      33.68545977      33.71042202
Al      45.87340850      35.69280877      33.67908499
Al      47.89277809      37.76708560      33.68395900
Al      49.90664066      39.76752664      33.64852731
Al      51.91047454      41.75963992      33.69324643
Al      35.67191397      23.55575428      35.71737165
Al      37.74277622      25.61310968      35.70104128
Al      39.80733868      27.63305537      35.71926391
Al      41.79965075      29.67355833      35.73478137
Al      43.85274676      31.69153171      35.74030386
Al      45.87027837      33.67225308      35.72986119
Al      47.88413092      35.71798056      35.74570517
Al      49.87917638      37.72444805      35.75264800
Al      51.88490720      39.77787751      35.74435040
Al      37.75352535      23.57620020      37.72123563
Al      39.76169075      25.58773434      37.73591861
Al      41.79861394      27.61654326      37.75979751
Al      43.82365431      29.66376148      37.73741709
Al      45.79817210      31.66076461      37.76214806
Al      47.87364336      33.67321824      37.76586793
Al      49.86436501      35.68936926      37.75065425
Al      51.87686483      37.75656782      37.76596603
Al      39.79168727      23.55809680      39.77866529
Al      41.77882305      25.61748965      39.79331616
Al      43.82902595      27.59015644      39.77570374
Al      45.83693632      29.64120000      39.78528351
Al      47.87691334      31.65131569      39.74875855
Al      49.90112230      33.67749583      39.75894945
Al      51.91352688      35.69672922      39.74210215
Al      41.81915903      23.55533754      41.81571781
Al      43.82001586      25.61066335      41.80096714
Al      45.82074812      27.62434471      41.78784144
Al      47.89585716      29.65832072      41.79707054
Al      49.88854971      31.67174243      41.80147442
Al      51.91410609      33.67396012      41.79444840
Al      43.79139438      23.59681738      43.85662220
Al      45.89122692      25.60838883      43.85187292
Al      47.86288681      27.59353576      43.81305828
Al      49.93124626      29.64025649      43.83290158
Al      45.85385462      23.55245958      45.83671064
Al      47.86858584      25.58494028      45.82126867
Al      49.88385247      27.61551560      45.88459957
Al      47.86120168      23.59415795      47.87353349
Al      23.55939342      25.60845178      25.57683769
Al      25.59777461      27.59882323      25.63244847
Al      27.63851427      29.67206429      25.55162695
Al      29.67514962      31.65882279      25.60660001
Al      31.66728291      33.69541680      25.57877739
Al      33.70218469      35.71588031      25.58320203
Al      35.73103483      37.73138408      25.60756379
Al      37.72786056      39.78823092      25.63378269
Al      39.78432521      41.78346074      25.59733382
Al      41.79832580      43.81431368      25.58949733
Al      43.82316442      45.84205673      25.62482803
Al      45.85619974      47.86008662      25.56565224
Al      25.61862991      25.60577972      27.61778810
Al      27.62429893      27.63762057      27.63609549
Al      29.64503878      29.64785723      27.63362346
Al      31.63890275      31.70194283      27.63090289
Al      33.69196063      33.69665678      27.60372095
Al      35.73461649      35.71889864      27.61338440
Al      37.74589367      37.73668498      27.61432097
Al      39.76836754      39.75397126      27.62825454
Al      41.80689532      41.75041735      27.61533144
Al      43.82246566      43.85121741      27.63029057
Al      45.83286908      45.82481485      27.61007058
Al      47.82889690      47.87486120      27.60893962
Al      27.62834933      25.58740232      29.64781818
Al      29.67150108      27.62026516      29.61458939
Al      31.68649345      29.66166969      29.64803193
Al      33.68873404      31.68369393      29.64654990
Al      35.68861349      33.69852917      29.63060579
Al      37.73323323      35.76599901      29.60310049
Al      39.76169795      37.75873216      29.68764368
Al      41.83659563      39.75496245      29.66501928
Al      43.82433255      41.76964900      29.64648040
Al      45.86440780      43.83348119      29.69151991
Al      47.85346125      45.84235926      29.62729157
Al      29.64979034      25.58514191      31.66049598
Al      31.63662504      27.64520830      31.64616178
Al      33.69730761      29.64532128      31.65410768
Al      35.69100640      31.67148761      31.64883164
Al      37.76971402      33.68749436      31.67914846
Al      39.79898767      35.68439832      31.67252891
Al      41.80721811      37.74908543      31.69074670
Al      43.81336987      39.80199470      31.61717073
Al      45.85570472      41.81425923      31.64111001
Al      47.84050342      43.81033615      31.67844756
Al      49.88630068      45.84827691      31.66913100
Al      31.63645389      25.60996671      33.68167788
Al      33.72382291      27.59828589      33.71155146
Al      35.71227643      29.62426283      33.68549621
Al      37.73399748      31.68481406      33.70996235
Al      39.78806031      33.69239465      33.71286782
Al      41.78598281      35.73406532      33.70912502
Al      43.82871142      37.73847822      33.67863057
Al      45.85373955      39.76280852      33.71565282
Al      47.87719249      41.78073259      33.67638107
Al      49.91444331      43.81378755      33.68237343
Al      33.70756418      25.62574362      35.76755260
Al      35.74730016      27.63328095      35.72003900
Al      37.75679698      29.63292728      35.70736505
Al      39.77527942      31.64524965      35.70583118
Al      41.77515459      33.72647270      35.75316400
Al      43.80480512      35.71655931      35.73521527
Al      45.88402017      37.77639464      35.70305867
Al      47.89063784      39.73984745      35.74808081
Al      49.91805015      41.79634390      35.69239395
Al      35.73843090      25.61245715      37.72646947
Al      37.73371212      27.62900491      37.77534551
Al      39.78425619      29.67039337      37.74177657
Al      41.80979577      31.67402888      37.75700295
Al      43.81538338      33.67158273      37.73665510
Al      45.84338480      35.69686051      37.76743803
Al      47.87478368      37.77638664      37.75589616
Al      49.86870266      39.76337679      37.70509589
Al      37.72213644      25.57247684      39.75041798
Al      39.77694240      27.63052656      39.79882795
Al      41.80871007      29.63163120      39.75399133
Al      43.80483063      31.69067699      39.76195559
Al      45.84525716      33.70721553      39.74982099
Al      47.88246612      35.71689435      39.77503120
Al      49.90313909      37.74225971      39.76050333
Al      39.78200877      25.61261340      41.80494689
Al      41.82634242      27.62060821      41.82250952
Al      43.83369199      29.63862910      41.79714594
Al      45.83990837      31.64626490      41.79521615
Al      47.89165743      33.71137990      41.79480807
Al      49.88446607      35.72652799      41.81411318
Al      41.81691963      25.62466102      43.79420366
Al      43.82022393      27.64036870      43.80758644
Al      45.84030269      29.66132199      43.80821736
Al      47.86678170      31.66141576      43.81820926
Al      49.90318216      33.66287909      43.81997753
Al      43.81688840      25.59547041      45.81581877
Al      45.86473469      27.61354152      45.85911764
Al      47.87748249      29.65219593      45.81384219
Al      49.94497701      31.70373824      45.84399409
Al      45.84914138      25.60012353      47.87522565
Al      47.87974168      27.64819818      47.86636364
Al      23.53337069      27.66057372      27.61894815
Al      25.60252094      29.64422242      27.62455881
Al      27.64885609      31.68718258      27.62604041
Al      29.63918682      33.69960172      27.62415864
Al      31.67473788      35.72653881      27.60290353
Al      33.70492729      37.72962855      27.58674385
Al      35.70858360      39.73786831      27.62777547
Al      37.78381538      41.77959790      27.63220117
Al      39.73966786      43.83763718      27.61196804
Al      41.75441462      45.83564675      27.61817004
Al      43.83539026      47.90232599      27.59758367
Al      45.80457080      49.90615307      27.61424485
Al      25.58853717      27.63694537      29.64220735
Al      27.59440142      29.61494570      29.66038503
Al      29.61185887      31.67844981      29.67718667
Al      31.66177708      33.68403410      29.66727968
Al      33.67839126      35.67717008      29.66560790
Al      35.68921760      37.73959407      29.68883088
Al      37.75994100      39.76364476      29.64986905
Al      39.75379544      41.79132872      29.60949963
Al      41.81061099      43.82674921      29.62560060
Al      43.77291183      45.83423853      29.63043582
Al      45.84707572      47.84528200      29.65096366
Al      27.62576037      27.61522561      31.63230790
Al      29.67162520      29.64711155      31.65132454
Al      31.66474458      31.67018129      31.63987144
Al      33.69126765      33.65725841      31.69098002
Al      35.72993096      35.69918985      31.65138390
Al      37.72462782      37.75025621      31.72411782
Al      39.78379397      39.79001411      31.66964004
Al      41.77868115      41.79207797      31.65807127
Al      43.82399145      43.85634031      31.66635143
Al      45.82232519      45.86015654      31.67114204
Al      47.87638075      47.90330794      31.66721903
Al      29.64729451      27.62700386      33.69863890
Al      31.70238967      29.65802437      33.65676337
Al      33.69762910      31.66350589      33.72025708
Al      35.73237927      33.72342159      33.65479275
Al      37.75852090      35.71460064      33.68587566
Al      39.76168676      37.73506598      33.70908584
Al      41.79337128      39.75825910      33.70532389
Al      43.80870652      41.76972268      33.70034056
Al      45.85521187      43.82567614      33.69540762
Al      47.86466703      45.87726923      33.69248007
Al      31.70494496      27.59310659      35.71340849
Al      33.72283660      29.63957951      35.74733315
Al      35.74076920      31.66174957      35.73254975
Al      37.71467921      33.70961664      35.72071961
Al      39.77482884      35.70183800      35.72776845
Al      41.80960527      37.72519222      35.70030368
Al      43.79749200      39.80122665      35.73239947
Al      45.85341677      41.78897688      35.72016074
Al      47.84770114      43.81805132      35.70165093
Al      33.65935162      27.61185692      37.73321985
Al      35.71508111      29.67477893      37.73875427
Al      37.77443186      31.67090736      37.74042111
Al      39.77562273      33.70761809      37.74469501
Al      41.77722066      35.74440629      37.73052732
Al      43.82481886      37.76816741      37.76567336
Al      45.84227161      39.78889199      37.75577610
Al      47.83520850      41.82196368      37.73267247
Al      35.70408448      27.58598778      39.82233400
Al      37.75645424      29.61061375      39.81691118
Al      39.76526071      31.68460562      39.76625070
Al      41.78074615      33.67944105      39.73873038
Al      43.78955421      35.72662494      39.77099033
Al      45.81262954      37.77135285      39.79534238
Al      47.85409633      39.77802990      39.78528080
Al      37.75090607      27.63030401      41.81976882
Al      39.77031566      29.66538687      41.82685413
Al      41.82029986      31.64178571      41.78596347
Al      43.83576191      33.68080858      41.79173598
Al      45.84007227      35.67991945      41.80048465
Al      47.86825807      37.70981220      41.79199911
Al      39.75647692      27.60956340      43.81900425
Al      41.77584791      29.62372092      43.82012742
Al      43.84618805      31.66936034      43.79718694
Al      45.83237228      33.68832477      43.83408740
Al      47.83009581      35.72277952      43.81605480
Al      41.78549549      27.58673829      45.82601011
Al      43.81252281      29.67407368      45.80405107
Al      45.86597278      31.68742927      45.86745224
Al      47.84875267      33.68654516      45.86557834
Al      43.84010892      27.62763206      47.84911491
Al      45.85120418      29.66140694      47.83824186
Al      47.87867994      31.67322624      47.88711195
Al      45.85961595      27.63728634      49.91267736
Al      23.56390177      29.64926004      29.62138974
Al      25.57316445      31.69672503      29.67953335
Al      27.59903376      33.66667617      29.60321110
Al      29.67181355      35.74630851      29.64461953
Al      31.69407086      37.72366314      29.64981538
Al      33.67696387      39.75156972      29.67975003
Al      35.74147882      41.82113627      29.62025737
Al      37.75674796      43.80646790      29.60994408
Al      39.75949164      45.83980648      29.67796079
Al      41.81605803      47.87988590      29.59310667
Al      43.83006223      49.88439854      29.63693740
Al      25.58429818      29.61911003      31.65504267
Al      27.64601599      31.69249372      31.69858087
Al      29.65654984      33.71043754      31.69037700
Al      31.66070555      35.70713535      31.64467654
Al      33.73764019      37.76776379      31.65490413
Al      35.72616738      39.73194736      31.69144491
Al      37.75453427      41.78786945      31.68174319
Al      39.76151499      43.84295441      31.65613568
Al      41.80544341      45.83360442      31.65784521
Al      43.86829943      47.85166808      31.68701098
Al      45.83138157      49.89486374      31.68763435
Al      27.60740629      29.63339288      33.70538728
Al      29.64777409      31.72743758      33.65658865
Al      31.67349150      33.72290169      33.70863813
Al      33.72123746      35.73795512      33.70226146
Al      35.72523713      37.74943871      33.67845783
Al      37.71953030      39.78016178      33.70493300
Al      39.74681037      41.80536688      33.68761256
Al      41.82601722      43.82709636      33.70121538
Al      43.82972472      45.84149788      33.72163885
Al      45.82783480      47.86310578      33.70746433
Al      29.63070667      29.67414205      35.72106636
Al      31.65212815      31.65663830      35.71738216
Al      33.69585609      33.66319244      35.72509925
Al      35.73077949      35.71579835      35.74580765
Al      37.74697131      37.76448162      35.68323578
Al      39.82480725      39.78170195      35.72714098
Al      41.77805595      41.77062085      35.72171324
Al      43.83015296      43.80014722      35.74616791
Al      45.85065837      45.83791143      35.73836581
Al      31.64802345      29.66545437      37.73680594
Al      33.72112260      31.67810245      37.70664603
Al      35.71180086      33.69307324      37.73677257
Al      37.74224404      35.71615960      37.72042658
Al      39.80043154      37.72159344      37.77649690
Al      41.80194155      39.77449770      37.76104392
Al      43.79916834      41.76143408      37.73337792
Al      45.84887619      43.78572701      37.74827847
Al      33.66948287      29.65957747      39.74662714
Al      35.71663830      31.64852466      39.79988183
Al      37.78820298      33.71301105      39.74657012
Al      39.77989635      35.67677788      39.77080425
Al      41.79401281      37.75191099      39.78793593
Al      43.85281783      39.82217081      39.77209318
Al      45.85249174      41.79375494      39.77559106
Al      47.87944046      43.81217415      39.79496754
Al      35.68574897      29.63893394      41.77653519
Al      37.73449757      31.65870733      41.80019091
Al      39.79741370      33.72406462      41.77981647
Al      41.79513285      35.74893330      41.82891959
Al      43.82120751      37.72095148      41.80372199
Al      45.85663966      39.77297094      41.79960886
Al      47.83311306      41.78179382      41.77115991
Al      37.76653684      29.66029069      43.79905598
Al      39.79089006      31.69878845      43.82296185
Al      41.81199884      33.69526173      43.78308779
Al      43.84944923      35.69872876      43.83974165
Al      45.82925338      37.75576522      43.83616614
Al      47.87596000      39.75318187      43.82903141
Al      39.79361763      29.64330697      45.85384430
Al      41.78959836      31.67264079      45.85684270
Al      43.81500860      33.69727118      45.86717499
Al      45.83678495      35.72213222      45.85972607
Al      41.80394389      29.65007026      47.86728652
Al      43.76825826      31.67944339      47.83407635
Al      45.81848836      33.74409960      47.87548775
Al      43.82990607      29.66937229      49.87846459
Al      45.85935774      31.67922432      49.88637867
Al      23.58166215      31.68562116      31.65644768
Al      25.56258592      33.70416473      31.67974485
Al      27.64809128      35.67756174      31.68075726
Al      29.68464173      37.76794203      31.65316835
Al      31.68208047      39.76782966      31.66488596
Al      33.68766202      41.84131867      31.69550808
Al      35.72879557      43.80953302      31.66532766
Al      37.76910029      45.80499186      31.66898020
Al      39.77609439      47.87590268      31.65821294
Al      41.80053927      49.92024505      31.67780111
Al      25.64744308      31.66730010      33.71029879
Al      27.61170024      33.70221031      33.64710979
Al      29.64726616      35.72146803      33.71708068
Al      31.67676537      37.73623388      33.70779861
Al      33.69958527      39.81012209      33.67419963
Al      35.71188473      41.80188583      33.70365027
Al      37.74438211      43.81947672      33.72276266
Al      39.75164070      45.86082672      33.70293756
Al      41.80499158      47.87258190      33.68860151
Al      43.82804859      49.87140234      33.69988799
Al      27.61668309      31.67824249      35.70013052
Al      29.65239040      33.68010194      35.72010377
Al      31.60754563      35.72847163      35.68893650
Al      33.73710397      37.74027609      35.70043096
Al      35.72090371      39.83328060      35.74209369
Al      37.74604110      41.78768816      35.74972604
Al      39.71771970      43.84589728      35.74597086
Al      41.79653494      45.85229885      35.68818799
Al      43.81491379      47.85825891      35.71639267
Al      29.65550976      31.66238137      37.73390892
Al      31.66615465      33.71773182      37.74075221
Al      33.73238682      35.73953867      37.73558616
Al      35.71578544      37.75180625      37.75048226
Al      37.75026932      39.78087982      37.72475363
Al      39.77515941      41.78198162      37.73460348
Al      41.76250324      43.82172772      37.75306099
Al      43.78104557      45.84388411      37.80388351
Al      31.66369233      31.66050540      39.78634603
Al      33.68413379      33.71138757      39.79150828
Al      35.74407494      35.71493782      39.73508627
Al      37.77252491      37.76896844      39.79209559
Al      39.78084857      39.78380006      39.76520188
Al      41.76264375      41.81627284      39.75364054
Al      43.84877304      43.84306682      39.79913638
Al      45.82797583      45.84166024      39.78955415
Al      33.68729000      31.68225279      41.78668762
Al      35.73329288      33.68976910      41.78281955
Al      37.75004685      35.72285232      41.82315498
Al      39.78825299      37.73805779      41.78389050
Al      41.78971135      39.76963850      41.82549286
Al      43.80491718      41.76823779      41.82113001
Al      45.82863943      43.80877287      41.80339317
Al      35.70142812      31.71083549      43.80528622
Al      37.77345403      33.69439413      43.82814315
Al      39.79665563      35.69708416      43.82956262
Al      41.80782160      37.75978751      43.81035334
Al      43.83172115      39.74732813      43.81393758
Al      45.84032707      41.76732703      43.80937134
Al      37.71589701      31.68694575      45.85817889
Al      39.80172400      33.72201586      45.86068777
Al      41.78637645      35.73322619      45.86956770
Al      43.82223115      37.74163369      45.83022121
Al      45.84667352      39.79643910      45.85006181
Al      39.76199974      31.63112700      47.83926965
Al      41.79300484      33.68798427      47.83628103
Al      43.84606108      35.70541920      47.86684194
Al      41.74676922      31.69968031      49.89182547
Al      43.82407920      33.65577124      49.88238468
Al      23.56583994      33.69850073      33.68559317
Al      25.57082028      35.75244831      33.70185036
Al      27.59870236      37.72700918      33.69227426
Al      29.62540445      39.75635567      33.70862856
Al      31.70184379      41.82707827      33.72688569
Al      33.68050072      43.78281796      33.67159271
Al      35.70989317      45.85602108      33.69746749
Al      37.75203328      47.88437173      33.69585114
Al      39.75111835      49.91898193      33.71322744
Al      41.76930351      51.91301086      33.64525546
Al      25.56580675      33.70728507      35.72612177
Al      27.65768700      35.67525216      35.69838280
Al      29.64721204      37.73992040      35.73038232
Al      31.67679909      39.73440118      35.70083340
Al      33.68672408      41.78715182      35.75046028
Al      35.73401777      43.82123396      35.70692125
Al      37.72384524      45.84654273      35.73788932
Al      39.74283253      47.84724702      35.70996727
Al      41.78506647      49.89070732      35.69839154
Al      27.61107847      33.68174617      37.73547624
Al      29.61605699      35.71425050      37.73378475
Al      31.67667602      37.75654870      37.77224526
Al      33.68729022      39.75888270      37.71783601
Al      35.68387455      41.82279844      37.71784177
Al      37.72465808      43.80556826      37.74457250
Al      39.78366733      45.82953768      37.71190261
Al      41.78837965      47.89270912      37.74868535
Al      29.67784259      33.75879664      39.75999979
Al      31.64647478      35.69410254      39.78482591
Al      33.66831062      37.73448181      39.78369321
Al      35.73323568      39.76722404      39.76413874
Al      37.71587705      41.80918168      39.80803004
Al      39.78239393      43.80117347      39.78670788
Al      41.83994822      45.86060626      39.74081502
Al      43.81208301      47.88855576      39.77637562
Al      31.70107096      33.68709812      41.81421177
Al      33.71552402      35.69626188      41.78261990
Al      35.72812241      37.76297467      41.77654626
Al      37.74660969      39.77707291      41.76621045
Al      39.79780977      41.79840173      41.78740069
Al      41.80015930      43.80027546      41.78511813
Al      43.82003693      45.87937479      41.80054244
Al      33.67758049      33.70695257      43.80040407
Al      35.70143090      35.73694817      43.79642128
Al      37.70558622      37.75011302      43.81736664
Al      39.76969043      39.75553748      43.84913336
Al      41.79518916      41.77473041      43.83237669
Al      43.80879189      43.81885232      43.85739591
Al      35.74305913      33.66477774      45.84164698
Al      37.76793726      35.70311674      45.83975835
Al      39.78236663      37.73247434      45.80876960
Al      41.77146858      39.80454774      45.83975174
Al      43.82091111      41.78463857      45.82797624
Al      37.78416172      33.65413329      47.86302580
Al      39.77466036      35.72744170      47.86330816
Al      41.79021574      37.76068557      47.84705427
Al      43.80627056      39.71383763      47.88474447
Al      39.75908932      33.70707906      49.92608636
Al      41.79629511      35.72082829      49.89433681
Al      41.78397386      33.69204262      51.91574589
Al      23.52097327      35.72922894      35.73734319
Al      25.55321336      37.72998194      35.73817341
Al      27.63668493      39.80084401      35.70612900
Al      29.65744246      41.81713393      35.75282770
Al      31.67374647      43.80605812      35.70525029
Al      33.70803262      45.83720822      35.66640826
Al      35.73930295      47.86750758      35.71520060
Al      37.76489906      49.86169648      35.75789297
Al      39.73133495      51.88857189      35.75795303
Al      25.58368746      35.70451072      37.78376970
Al      27.64035196      37.75460087      37.73742717
Al      29.64406052      39.77061818      37.76824073
Al      31.65578683      41.80478593      37.76931253
Al      33.68743961      43.78914960      37.69587350
Al      35.73253757      45.79661186      37.75561814
Al      37.74044762      47.85557716      37.73041396
Al      39.78115453      49.89173473      37.72065069
Al      27.61149444      35.72955199      39.76538769
Al      29.62524366      37.72890509      39.76137289
Al      31.69658908      39.75252892      39.79586776
Al      33.69686516      41.79252500      39.75572102
Al      35.71260689      43.84493753      39.78832578
Al      37.75589869      45.86017018      39.77531068
Al      39.77541120      47.87922543      39.77478806
Al      29.64052033      35.69300492      41.77258587
Al      31.66251229      37.73566120      41.77898059
Al      33.70877943      39.77526333      41.80154228
Al      35.69863275      41.78797389      41.78603625
Al      37.72319822      43.78743027      41.75971973
Al      39.78579302      45.84881054      41.82110912
Al      41.76746856      47.87487765      41.77108200
Al      31.65816527      35.71856456      43.80181880
Al      33.69896140      37.73970552      43.82343876
Al      35.72147713      39.74870805      43.81022644
Al      37.74062515      41.76476442      43.78111064
Al      39.79327211      43.78375656      43.82759704
Al      41.82630437      45.85145748      43.81905456
Al      33.67154916      35.71329709      45.89183981
Al      35.73518909      37.73276421      45.84927877
Al      37.72175274      39.79294845      45.86011394
Al      39.75101444      41.82367836      45.83054315
Al      41.78351880      43.81166950      45.83137817
Al      35.74238605      35.73498764      47.88165786
Al      37.71162030      37.75322677      47.91192135
Al      39.77747867      39.76454861      47.90489772
Al      41.79332038      41.80479574      47.88223798
Al      37.75954304      35.73375893      49.87146159
Al      39.79234430      37.76890176      49.89497325
Al      39.76150495      35.72922574      51.89869217
Al      23.54812914      37.75061373      37.76889538
Al      25.55091507      39.77025115      37.74044855
Al      27.63564801      41.77385922      37.74863334
Al      29.63627761      43.80856187      37.73420606
Al      31.63806398      45.83748601      37.72912188
Al      33.70907356      47.84870121      37.73913875
Al      35.73658791      49.86250859      37.74522264
Al      37.75938243      51.89857625      37.73064804
Al      25.61558163      37.76722479      39.76014685
Al      27.60902035      39.74020001      39.77688869
Al      29.61748279      41.76351396      39.76850361
Al      31.65899432      43.79353374      39.78516701
Al      33.69854474      45.86645813      39.76965606
Al      35.71537152      47.87395782      39.79450957
Al      37.74353925      49.87869201      39.75113367
Al      27.63620841      37.73974615      41.79134139
Al      29.64753173      39.81561497      41.83247236
Al      31.67338242      41.80337339      41.80595773
Al      33.66049762      43.81300968      41.82847974
Al      35.72010378      45.85344209      41.79849610
Al      37.72528496      47.86878084      41.80761809
Al      29.65104591      37.71625774      43.79512073
Al      31.65598324      39.77267209      43.82453101
Al      33.65931163      41.80704968      43.83625983
Al      35.70980438      43.86183849      43.84638126
Al      37.72759102      45.81821381      43.84394328
Al      39.79609964      47.89527583      43.82343529
Al      31.64222620      37.78284884      45.85434049
Al      33.71445012      39.76161170      45.87046474
Al      35.73877373      41.76113770      45.81317934
Al      37.71398801      43.81068954      45.83229740
Al      39.75055029      45.83962890      45.86469452
Al      33.72802968      37.75147724      47.85301682
Al      35.73691452      39.76212318      47.83202617
Al      37.72473788      41.82886677      47.87974479
Al      39.77086139      43.80245370      47.89599915
Al      35.70906238      37.71118898      49.88606374
Al      37.72207552      39.78966676      49.90240489
Al      37.74378750      37.74061951      51.88749382
Al      23.55407661      39.79492866      39.72753800
Al      25.60370353      41.79011541      39.76989082
Al      27.64455171      43.81909454      39.80246131
Al      29.62857475      45.86013412      39.75816250
Al      31.67635575      47.91484550      39.77389050
Al      33.70471504      49.87847790      39.78284318
Al      35.72195478      51.95035592      39.78126109
Al      25.62982671      39.78148295      41.80015553
Al      27.62962046      41.80117057      41.79909507
Al      29.63196658      43.81817829      41.80743576
Al      31.66669628      45.84058734      41.78024099
Al      33.67337123      47.88769488      41.77350487
Al      35.76399287      49.86086285      41.77422381
Al      27.63184919      39.78781739      43.83313054
Al      29.65513899      41.79573034      43.85368510
Al      31.68526764      43.79451109      43.79687441
Al      33.68489102      45.85687263      43.83704740
Al      35.70445132      47.90886028      43.79775582
Al      29.64965386      39.78393191      45.84309464
Al      31.68334567      41.79050376      45.84902071
Al      33.67683620      43.81661218      45.82719316
Al      35.70127483      45.83649805      45.84120599
Al      31.67934420      39.79156479      47.90011382
Al      33.74156446      41.82385337      47.87345206
Al      35.70960123      43.80856646      47.83272918
Al      33.67955454      39.76153315      49.87265597
Al      35.73945865      41.81426900      49.90713966
Al      35.72003882      39.73176728      51.91181549
Al      23.58791490      41.77715494      41.79703931
Al      25.56601206      43.81923514      41.77647549
Al      27.61978768      45.84048243      41.79423648
Al      29.63296582      47.87262540      41.75983085
Al      31.67901872      49.89043665      41.77938978
Al      33.72049915      51.95214051      41.79541215
Al      25.57709470      41.78422094      43.84602810
Al      27.62023187      43.86115143      43.84818835
Al      29.63772798      45.84978975      43.80726731
Al      31.64458707      47.85724976      43.83562240
Al      33.67185227      49.88440110      43.81865931
Al      27.65367959      41.76048623      45.87102837
Al      29.61142362      43.81956517      45.85098348
Al      31.64384551      45.82881826      45.84265563
Al      33.69323448      47.91152976      45.86114160
Al      29.63509349      41.79305446      47.84334363
Al      31.69413395      43.83607173      47.89401933
Al      33.71183368      45.84128012      47.87635764
Al      31.64727899      41.79908779      49.91274253
Al      33.66924868      43.84321557      49.87830402
Al      33.71682382      41.83818710      51.89393795
Al      23.56056615      43.81352783      43.83125409
Al      25.59543425      45.84770232      43.80096680
Al      27.63904101      47.86306595      43.79864050
Al      29.64197062      49.90545249      43.83255785
Al      25.55450179      43.86005401      45.82333057
Al      27.60381053      45.85590102      45.85608361
Al      29.64506723      47.87717202      45.86936992
Al      31.66715132      49.88754349      45.86029638
Al      27.60318642      43.84360408      47.83938427
Al      29.64929749      45.82697001      47.87162366
Al      31.70290186      47.84791532      47.88366660
Al      29.66979891      43.79006403      49.92528187
Al      31.67543854      45.84514238      49.89543601
Al      23.59405218      45.84863278      45.84011146
Al      25.57457684      47.88743958      45.82637288
Al      27.62571357      49.87988408      45.83464547
Al      25.58496775      45.84327315      47.87975046
Al      27.61838037      47.88640543      47.84113680
Al      27.61936354      45.85737832      49.87178399
Al      23.54759279      47.88882146      47.84590438
