108
Lattice="13.931647233380128 0.0 0.0 0.0 13.96796063799717 0.0 0.0 0.0 13.979356187093936" Properties=species:S:1:pos:R:3 id=sample_000350 pbc="F F F"
Au       0.00130630      -0.00227385      -0.00058618
Au       0.00041597       2.32179727       2.32662926
Au       2.31818877      -0.00414122       2.33606122
Au       2.31738131       2.32645153       0.02707064
Au      -0.01733501       0.00255093       4.64538093
Au      -0.00050733       2.32906062       7.00358294
Au       2.32104493      -0.00152838       6.99039437
Au       2.31567419       2.33734230       4.67961764
Au      -0.01678614      -0.00659382       9.33221835
Au      -0.01640550       2.32940955      11.65019095
Au       2.30469560      -0.00404276      11.65520291
Au       2.33752066       2.33476611       9.32907050
Au      -0.00015109       4.64748406      -0.00292720
Au      -0.01469067       6.98145735       2.34115323
Au       2.31833638       4.66428394       2.32866135
Au       2.32725768       6.99766505      -0.01192427
Au       0.01629408       4.66101586       4.65118683
Au      -0.00111966       6.97494563       6.99217171
Au       2.30936055       4.64341152       6.96257339
Au       2.32208951       6.98664650       4.66551504
Au      -0.00099512       4.66627788       9.29604295
Au       0.00798127       6.96391235      11.64916183
Au       2.31737120       4.64939135      11.64573634
Au       2.33277348       6.99353081       9.29886061
Au      -0.00193334       9.31852775      -0.00786534
Au      -0.00785346      11.61605923       2.34859862
Au       2.32241612       9.31512797       2.31797147
Au       2.30357365      11.63000977       0.00651372
Au      -0.01094611       9.31404056       4.62839837
Au      -0.00224640      11.64563599       6.99006655
Au       2.32808821       9.30001234       6.98951207
Au       2.32955982      11.63292268       4.64613397
Au      -0.00345229       9.31372246       9.32182907
Au       0.00381071      11.65167264      11.65849551
Au       2.31630839       9.30490584      11.65302260
Au       2.32775612      11.64655424       9.32362239
Au       4.65086160      -0.01298222       0.00701613
Au       4.65167973       2.33434097       2.33576508
Au       6.95716444       0.00860548       2.32097293
Au       6.97839335       2.32238509      -0.00901036
Au       4.64786317       0.01251552       4.63733256
Au       4.64893718       2.32951785       6.99937813
Au       6.95405871       0.00127564       6.97215030
Au       6.99267020       2.32176650       4.67099030
Au       4.65431899       0.00840749       9.31946787
Au       4.64690871       2.31840242      11.64254716
Au       6.96771399       0.01599000      11.67026129
Au       6.96181612       2.32213687       9.31027659
Au       4.65120171       4.66176424      -0.01144344
Au       4.66159485       6.98285108       2.34005566
Au       6.96142724       4.65798949       2.33133417
Au       6.97566663       6.98727802       0.00584968
Au       4.66026576       4.64811267       4.64894735
Au       4.65555277       6.99656050       6.98397145
Au       6.96076373       4.64740719       7.00323360
Au       6.96153288       6.99621189       4.66053451
Au       4.63619927       4.66682578       9.32795637
Au       4.63565569       6.99847420      11.65527673
Au       6.96360617       4.64669841      11.65459555
Au       6.97494533       6.95725943       9.32798041
Au       4.63602971       9.31121400      -0.00936783
Au       4.66725554      11.63578039       2.33793805
Au       6.97011656       9.32681879       2.32391856
Au       6.96588883      11.63135722       0.00352498
Au       4.63839529       9.31094113       4.66696579
Au       4.63468440      11.63993105       6.97584482
Au       6.97074815       9.30160717       6.98031858
Au       6.96512265      11.62647376       4.66342121
Au       4.65626975       9.30456570       9.30646392
Au       4.64787985      11.63111843      11.64860304
Au       6.97338397       9.30641522      11.63304976
Au       6.95873734      11.64173473       9.31461241
Au       9.29035605       0.00404505      -0.00391075
Au       9.31165363       2.33200131       2.34518242
Au      11.61366251       0.00231342       2.33570981
Au      11.59711338       2.34024827      -0.00527340
Au       9.29852163       0.00787898       4.67059427
Au       9.28560565       2.34361818       7.01199202
Au      11.61028639       0.01296428       6.99515156
Au      11.61302484       2.34075357       4.65940437
Au       9.28991168      -0.01398212       9.30817000
Au       9.27657341       2.34405137      11.64676147
Au      11.61211654       0.00022912      11.63817672
Au      11.62456862       2.33498985       9.31864872
Au       9.27088459       4.64405210      -0.00849262
Au       9.29084124       6.96747195       2.33162383
Au      11.61519675       4.65008257       2.33094813
Au      11.60364410       6.98665529      -0.00777923
Au       9.28472395       4.65307145       4.67003401
Au       9.27493887       6.98994241       6.98313721
Au      11.61368593       4.63776420       6.99482311
Au      11.58339689       6.98272766       4.65040319
Au       9.26658402       4.65300784       9.31348907
Au       9.28901484       6.97738395      11.65192545
Au      11.60074141       4.66161142      11.64288584
Au      11.60561991       6.97442968       9.30463882
Au       9.29327532       9.31603717      -0.00219319
Au       9.29242203      11.64151633       2.32650321
Au      11.59287096       9.30151219       2.34355261
Au      11.60787807      11.63097207      -0.02897633
Au       9.28590227       9.32190698       4.66509034
Au       9.29193790      11.63718456       6.98057724
Au      11.60870576       9.32118690       7.00005790
Au      11.61019667      11.64481349       4.66195794
Au       9.28954502       9.32010916       9.32813775
Au       9.30178004      11.62300608      11.64815501
Au      11.62236858       9.30466716      11.65087512
Au      11.61685975      11.65077708       9.31642066
