108
Lattice="13.591827360736637 0.0 0.0 0.0 11.881105050268086 0.0 0.0 0.0 11.595589133403868" Properties=species:S:1:pos:R:3 id=sample_000881 pbc="F F F"
Cu       0.03218071       0.00367367       0.00307227
Cu      -0.00013600       1.99066584       1.93695154
Cu       2.27730518       0.02616750       1.93441868
Cu       2.27817454       1.98558064      -0.02879829
Cu      -0.02984374      -0.00218549       3.84881351
Cu       0.00692034       1.95864078       5.78874514
Cu       2.28163765       0.01456327       5.81099341
Cu       2.26447058       1.96049221       3.89302674
Cu      -0.00459609       0.01721129       7.75358865
Cu       0.00441163       1.97589033       9.65880996
Cu       2.27157342      -0.01080183       9.65556321
Cu       2.27236101       1.99331701       7.72778315
Cu       0.02838018       3.93022169       0.02490800
Cu      -0.01571258       5.95946483       1.93555653
Cu       2.26259872       3.94119865       1.92490861
Cu       2.28852766       5.93529632       0.01378431
Cu       0.01482512       3.97266138       3.85179587
Cu      -0.01077433       5.94429176       5.81876106
Cu       2.27529252       3.95764268       5.80044914
Cu       2.23188695       5.93403222       3.85330614
Cu      -0.02577425       3.94997514       7.72450442
Cu      -0.01387707       5.93520516       9.67772204
Cu       2.25018018       3.95559773       9.66785542
Cu       2.26006022       5.93620149       7.71210314
Cu      -0.00298197       7.91252403       0.00834575
Cu       0.03022588       9.86314577       1.94279955
Cu       2.26420485       7.91463817       1.90572436
Cu       2.28480657       9.88902710      -0.01835192
Cu      -0.01717913       7.93113445       3.89032580
Cu       0.01565135       9.88667903       5.81747622
Cu       2.30117017       7.92372882       5.78115918
Cu       2.28868075       9.90814103       3.85588937
Cu       0.03016936       7.90534675       7.72208120
Cu      -0.00944653       9.88521276       9.67519994
Cu       2.25738225       7.92842958       9.64682626
Cu       2.27840361       9.91421714       7.75341623
Cu       4.52612077       0.00635116      -0.01066920
Cu       4.53591485       1.98165042       1.93785996
Cu       6.79796387      -0.00050351       1.91551144
Cu       6.81442730       1.98146252      -0.02962166
Cu       4.52756015       0.01069320       3.87688171
Cu       4.53025471       1.98675076       5.79749105
Cu       6.79880556       0.03182362       5.79288347
Cu       6.79717689       1.98103308       3.86455063
Cu       4.52083243      -0.02812259       7.74762858
Cu       4.54859813       1.99154459       9.66461134
Cu       6.78397274      -0.00234840       9.66545245
Cu       6.79974063       1.98975358       7.72160860
Cu       4.52257215       3.96558181       0.00234300
Cu       4.53710170       5.96006715       1.94071420
Cu       6.78043049       3.95190691       1.93214054
Cu       6.78494264       5.94621495       0.01475081
Cu       4.53009372       3.94750494       3.85171127
Cu       4.54552991       5.96712197       5.79630116
Cu       6.78967046       3.96033212       5.80652968
Cu       6.77886880       5.96691344       3.90189586
Cu       4.53956103       3.95131326       7.70950166
Cu       4.52353677       5.93884695       9.63628568
Cu       6.80255436       3.96670013       9.67285378
Cu       6.79739108       5.92685160       7.73503990
Cu       4.53146927       7.92333106      -0.01226918
Cu       4.51617083       9.87845553       1.93792562
Cu       6.80066839       7.93102535       1.94303793
Cu       6.80626560       9.91335828      -0.01967434
Cu       4.51129882       7.93792707       3.86690713
Cu       4.52372130       9.89135559       5.80813437
Cu       6.80097406       7.91693869       5.79243078
Cu       6.81160056       9.86172886       3.86531332
Cu       4.53279942       7.92099193       7.73513683
Cu       4.54656814       9.91555096       9.66968085
Cu       6.78792487       7.92075600       9.69305056
Cu       6.78546728       9.89509468       7.72498489
Cu       9.05437386       0.00691133      -0.00694472
Cu       9.05337650       1.95506179       1.93550770
Cu      11.34854315      -0.00601865       1.92760323
Cu      11.31767566       1.99345670      -0.00485284
Cu       9.07972502      -0.00488471       3.86740322
Cu       9.08885584       2.00047833       5.79760511
Cu      11.30896540       0.00374127       5.79666086
Cu      11.32908849       2.01035148       3.87085134
Cu       9.06875992       0.01168778       7.72215689
Cu       9.08230200       1.98157332       9.65718420
Cu      11.31208260       0.01648680       9.67486383
Cu      11.34378295       1.98296133       7.70452162
Cu       9.04891859       3.97018198      -0.01696116
Cu       9.07138008       5.93556024       1.91054426
Cu      11.31753161       3.95039444       1.92218494
Cu      11.31223459       5.90952490       0.02221216
Cu       9.07493252       3.93291406       3.85828483
Cu       9.04480944       5.92803916       5.79948779
Cu      11.34035973       3.98590692       5.78695743
Cu      11.34370861       5.94891652       3.82639119
Cu       9.09062246       3.93057120       7.74000888
Cu       9.03287087       5.94483092       9.65969467
Cu      11.33933603       3.96331993       9.67588110
Cu      11.32747795       5.94789582       7.73147130
Cu       9.05090433       7.94975405       0.01933406
Cu       9.08143140       9.90499376       1.92687516
Cu      11.32545950       7.93526077       1.91454247
Cu      11.32181327       9.87059460      -0.00537700
Cu       9.07051348       7.92191577       3.86647525
Cu       9.05943259       9.91163074       5.80335822
Cu      11.31857943       7.90809599       5.80577591
Cu      11.33211079       9.88127352       3.90104096
Cu       9.06826308       7.93145045       7.72750699
Cu       9.03805031       9.90166260       9.66446352
Cu      11.32805066       7.93527660       9.66976272
Cu      11.31638783       9.87938057       7.72379168
