500
Lattice="19.786021563862953 0.0 0.0 0.0 19.532073710060203 0.0 0.0 0.0 23.205053437179597" Properties=species:S:1:pos:R:3 id=sample_000260 pbc="F F F"
Al      -0.00598417      -0.02667973       0.00810670
Al       0.00630628       1.96542318       2.33042002
Al       1.97203951      -0.00812625       2.32167374
Al       2.00556954       1.96440534      -0.01135784
Al       0.00985051      -0.00559341       4.64748256
Al       0.00016686       1.96154902       6.96933880
Al       1.97459034       0.01198866       6.97140479
Al       1.99561053       1.94215290       4.65070952
Al      -0.00281228       0.00556260       9.27485760
Al       0.01756207       1.95550672      11.60922247
Al       1.97783885       0.01215018      11.60832123
Al       2.00526644       1.94828672       9.28030845
Al      -0.00935291       0.00317954      13.93084764
Al      -0.00178370       1.95073849      16.25869193
Al       1.97074652      -0.01328990      16.24010730
Al       1.98449600       1.94585785      13.93365875
Al      -0.00244829       0.00431071      18.57013835
Al       0.00762489       1.95332881      20.86114918
Al       1.96962178      -0.02180820      20.87899548
Al       1.97608716       1.93832215      18.54277731
Al       0.01462536       3.89492318       0.00119465
Al       0.00854142       5.86247581       2.31974443
Al       1.96911461       3.90984803       2.31689774
Al       1.98443257       5.86546924      -0.00541400
Al       0.00182045       3.90620383       4.63060963
Al       0.00815677       5.85882192       6.94131458
Al       1.97872175       3.90734623       6.96826371
Al       1.95872900       5.86131352       4.64111173
Al      -0.00805624       3.91450075       9.26838949
Al      -0.00288891       5.86604260      11.58628638
Al       1.97377579       3.91469539      11.59913552
Al       1.96010208       5.87450796       9.28447893
Al      -0.00762377       3.91300459      13.92982989
Al      -0.00866153       5.86245497      16.24311865
Al       2.00660184       3.89344550      16.24633251
Al       1.96899591       5.86652655      13.94058110
Al      -0.00979335       3.92627729      18.56453919
Al       0.00329434       5.86008699      20.88367268
Al       1.98672955       3.91734148      20.87592297
Al       1.96745185       5.86559527      18.56855639
Al       0.00205435       7.79793934      -0.00092814
Al      -0.00909256       9.76732926       2.32851034
Al       1.97294098       7.81139882       2.31511934
Al       1.98947669       9.77324898      -0.01393309
Al       0.01622230       7.81846869       4.64669899
Al      -0.00893583       9.78105140       6.95535085
Al       1.97229116       7.80522261       6.96978415
Al       1.98266652       9.77440886       4.64406713
Al       0.01119763       7.80996759       9.26623262
Al       0.02147245       9.75891953      11.60526484
Al       1.98223501       7.81092323      11.61577397
Al       1.97783036       9.76674882       9.26901572
Al      -0.00026848       7.80926493      13.92322537
Al      -0.00431790       9.76090951      16.23799538
Al       1.97073178       7.80982956      16.24853722
Al       1.97974719       9.75970666      13.90510097
Al       0.01367896       7.82005851      18.55766040
Al      -0.00242109       9.77960374      20.88677343
Al       1.97141689       7.80646504      20.90000750
Al       1.98208128       9.76816300      18.54876070
Al       0.00227278      11.72812792      -0.00123761
Al      -0.01479567      13.66548638       2.31447085
Al       1.96369880      11.72032867       2.33232932
Al       1.99594995      13.66466422       0.00337093
Al      -0.00693396      11.72334755       4.65493536
Al       0.00277937      13.65350344       6.97018371
Al       1.97609945      11.71276064       6.96603568
Al       1.97800318      13.67065417       4.63985147
Al       0.00605261      11.72020267       9.27367948
Al       0.01002133      13.67182670      11.58724079
Al       1.96049501      11.72574164      11.59471293
Al       1.98571857      13.67260532       9.28514002
Al       0.00384886      11.71560678      13.91324618
Al      -0.01332700      13.65966924      16.24717638
Al       1.96998961      11.71350939      16.25857765
Al       1.96989063      13.65984109      13.92060735
Al       0.00778505      11.71512304      18.56045177
Al       0.00943440      13.67466871      20.88574924
Al       1.97490279      11.72581850      20.90711489
Al       1.99197164      13.66334878      18.55760704
Al      -0.00401289      15.62689489      -0.00341361
Al      -0.00816410      17.57763120       2.32415915
Al       1.97230637      15.64208256       2.32560737
Al       1.98400119      17.56622553      -0.00199493
Al      -0.00737271      15.63511168       4.64417893
Al      -0.00620051      17.57046993       6.94657947
Al       1.98190595      15.63821941       6.97079487
Al       1.96803882      17.57894539       4.65468708
Al       0.01007909      15.63325309       9.27962468
Al       0.01321401      17.58416131      11.60094412
Al       1.98589937      15.62257691      11.60525097
Al       1.98206505      17.57657810       9.28424697
Al       0.00624544      15.62668798      13.92863181
Al      -0.00324642      17.58682439      16.25824912
Al       1.99889142      15.61876514      16.24850306
Al       1.99726550      17.58931503      13.93273561
Al      -0.00333813      15.63374437      18.56018087
Al      -0.00423502      17.58802963      20.89032491
Al       1.97746889      15.63585157      20.87796690
Al       1.97332065      17.58340657      18.56804374
Al       3.95407481       0.01539901       0.00477657
Al       3.95447421       1.95549282       2.32517216
Al       5.94801868      -0.00713569       2.32902886
Al       5.92407548       1.94420370      -0.00740668
Al       3.95020606       0.00946092       4.61712189
Al       3.95265097       1.94426561       6.95801588
Al       5.94288368      -0.01080920       6.95687227
Al       5.92484727       1.97964824       4.61885902
Al       3.93141907       0.00603094       9.28196423
Al       3.96618439       1.95377865      11.59834437
Al       5.92392405       0.00533717      11.60997847
Al       5.93966645       1.94849437       9.27489671
Al       3.95186483       0.01226204      13.92995755
Al       3.97114205       1.96016432      16.24163969
Al       5.92443815      -0.00801127      16.24634978
Al       5.95046634       1.96515430      13.92653008
Al       3.95500689       0.00667968      18.57932922
Al       3.96206733       1.94896843      20.88756723
Al       5.93116399       0.00929671      20.88389939
Al       5.95727355       1.95913447      18.55526371
Al       3.95207161       3.88947494      -0.01098624
Al       3.94863064       5.87520351       2.30945987
Al       5.93541865       3.91417768       2.31544191
Al       5.94642960       5.87311002      -0.00507784
Al       3.96165575       3.91005189       4.62951045
Al       3.96285458       5.85062809       6.96537399
Al       5.93272532       3.91102334       6.95094563
Al       5.93523536       5.88074499       4.62940457
Al       3.95301336       3.90891987       9.27562315
Al       3.96371260       5.85363176      11.59704356
Al       5.94442171       3.89577689      11.61289770
Al       5.93497258       5.85796922       9.27552118
Al       3.95502142       3.92114054      13.92698822
Al       3.95545224       5.86704205      16.24658889
Al       5.94774572       3.89442985      16.24265566
Al       5.93495805       5.86054470      13.92298946
Al       3.96488659       3.91559805      18.55536890
Al       3.98710182       5.86712361      20.89493532
Al       5.93870391       3.90187910      20.88371533
Al       5.94285694       5.86859155      18.56145807
Al       3.97250502       7.82841932       0.01002581
Al       3.96172452       9.76796089       2.31021100
Al       5.93622419       7.80825002       2.32559618
Al       5.93398050       9.78558436      -0.00140862
Al       3.95318253       7.80831702       4.64941230
Al       3.96003276       9.75989813       6.97094918
Al       5.94017930       7.81451126       6.96528833
Al       5.93700952       9.77619753       4.64645263
Al       3.95397327       7.81255098       9.28333977
Al       3.96849756       9.74955901      11.59303992
Al       5.93176287       7.82870971      11.58063934
Al       5.93051821       9.75711211       9.27199748
Al       3.95461762       7.80392111      13.91983491
Al       3.96284705       9.76097246      16.24591551
Al       5.92565917       7.80685020      16.23579151
Al       5.93826997       9.76324059      13.93125384
Al       3.95466481       7.81009468      18.56732331
Al       3.96053268       9.77797084      20.87954394
Al       5.92595040       7.82614143      20.89856608
Al       5.92350256       9.76578315      18.56260186
Al       3.96822808      11.69178048      -0.00099832
Al       3.96771654      13.69709153       2.32842751
Al       5.92834172      11.70856080       2.31969772
Al       5.92704997      13.67611528      -0.00629913
Al       3.96047997      11.72220166       4.64506319
Al       3.95089168      13.67641882       6.96483040
Al       5.93945493      11.72474519       6.97878891
Al       5.92780015      13.66810647       4.64841198
Al       3.96292711      11.71456515       9.29337745
Al       3.94745321      13.68753369      11.60538585
Al       5.93806667      11.70979844      11.60249632
Al       5.94538647      13.67727339       9.27836796
Al       3.95639343      11.72106280      13.91875670
Al       3.95658159      13.66185535      16.26916624
Al       5.91586049      11.71456563      16.23762086
Al       5.92983073      13.67477694      13.91909071
Al       3.96233480      11.70756428      18.57136709
Al       3.95853315      13.68922105      20.89521066
Al       5.93744461      11.71060939      20.88106093
Al       5.91518917      13.66392862      18.57246920
Al       3.95688675      15.63743569      -0.00534877
Al       3.96536656      17.59464123       2.30590971
Al       5.95311229      15.62101884       2.32452900
Al       5.93921589      17.55971011       0.00763951
Al       3.98129034      15.63614573       4.64824102
Al       3.95657383      17.57710841       6.94024746
Al       5.93528349      15.62127447       6.97242592
Al       5.94539921      17.58555467       4.64564870
Al       3.93772147      15.62489624       9.29348451
Al       3.94794585      17.58749914      11.59874811
Al       5.94036228      15.62412875      11.59395875
Al       5.93810120      17.57279746       9.28428323
Al       3.93889478      15.62424782      13.92292380
Al       3.95026631      17.57381165      16.23553250
Al       5.92300532      15.63486863      16.24187223
Al       5.93981613      17.56664250      13.92023041
Al       3.94946300      15.61372172      18.59912291
Al       3.96268450      17.57677330      20.90005121
Al       5.93059178      15.63972007      20.88529605
Al       5.94523307      17.58883665      18.57072991
Al       7.90698483       0.01535114      -0.01084466
Al       7.92051376       1.96008768       2.32503625
Al       9.90218121       0.00449710       2.31254340
Al       9.90575190       1.95892809      -0.02007297
Al       7.90662422       0.00063252       4.65000908
Al       7.89500186       1.94399373       6.96033503
Al       9.90915387      -0.00536803       6.95563582
Al       9.89705503       1.94092991       4.62642360
Al       7.91278956       0.01364523       9.27328348
Al       7.89548870       1.95223613      11.59067107
Al       9.91478127      -0.00629999      11.61941179
Al       9.89006212       1.94882610       9.27564271
Al       7.90601927      -0.00125502      13.90735220
Al       7.91422880       1.94566988      16.23037469
Al       9.89458838       0.00174350      16.24864930
Al       9.89125289       1.96849283      13.92650987
Al       7.91591628      -0.02495475      18.57283473
Al       7.92109685       1.94380455      20.88827106
Al       9.89270759       0.01514040      20.90248657
Al       9.89252087       1.93764990      18.55752393
Al       7.91993395       3.88332810       0.00831756
Al       7.90705249       5.85387080       2.31154863
Al       9.89323275       3.90364843       2.33952796
Al       9.90456852       5.84739435       0.02155647
Al       7.92988857       3.90299236       4.63304667
Al       7.92944157       5.85702671       6.97304654
Al       9.88300825       3.89670197       6.98179340
Al       9.89593420       5.86789634       4.63702527
Al       7.91485352       3.91913018       9.28118823
Al       7.92930496       5.86061156      11.59818888
Al       9.90138442       3.89660504      11.59094026
Al       9.88715524       5.87103161       9.30052081
Al       7.92013697       3.90794179      13.91840708
Al       7.93031302       5.86881008      16.24900395
Al       9.88814790       3.92624874      16.24312021
Al       9.91589969       5.84922940      13.93457961
Al       7.91977301       3.91484846      18.57067249
Al       7.93435697       5.85492216      20.89046587
Al       9.87640191       3.91698271      20.87343832
Al       9.89139055       5.86212299      18.54775414
Al       7.90505223       7.79366084       0.00998362
Al       7.93317868       9.77838426       2.30675338
Al       9.86510503       7.82738160       2.32488264
Al       9.88653872       9.76824456      -0.01229700
Al       7.92196495       7.82518432       4.62786500
Al       7.91968126       9.77734187       6.97307814
Al       9.88507401       7.81700983       6.94940121
Al       9.88585996       9.76776494       4.63815170
Al       7.92037133       7.82164770       9.27729284
Al       7.88423868       9.76402304      11.60248020
Al       9.90359941       7.79953584      11.61260901
Al       9.90694872       9.76971956       9.29923407
Al       7.91085955       7.81767503      13.93549621
Al       7.91013794       9.77069875      16.24029640
Al       9.90727122       7.81885396      16.25077248
Al       9.87773038       9.76956009      13.93793467
Al       7.89775494       7.81030585      18.54842057
Al       7.92184275       9.77673101      20.87660316
Al       9.89837652       7.79123080      20.88017346
Al       9.90161610       9.77405344      18.56566312
Al       7.91588421      11.72699018       0.00897538
Al       7.91022999      13.66124120       2.33315028
Al       9.90359061      11.71122586       2.31486823
Al       9.86260138      13.66523870      -0.00688095
Al       7.93044117      11.72838211       4.63226759
Al       7.92625619      13.68293159       6.96368084
Al       9.89864724      11.72696923       6.97332945
Al       9.89373301      13.66167012       4.64273106
Al       7.92189302      11.70741565       9.29067502
Al       7.90684327      13.67207621      11.58247145
Al       9.88956946      11.71955561      11.59585981
Al       9.89396283      13.68252416       9.28721738
Al       7.93302028      11.73182170      13.92885217
Al       7.91414190      13.65475513      16.24381317
Al       9.88431083      11.74113361      16.24276606
Al       9.87892091      13.69057912      13.93728885
Al       7.91757369      11.73240621      18.56301692
Al       7.91068661      13.66302465      20.88423605
Al       9.89696274      11.71239890      20.90052091
Al       9.89017108      13.66704615      18.54523635
Al       7.90020406      15.62705878       0.00437577
Al       7.90657229      17.59221883       2.30834625
Al       9.88590874      15.62609644       2.32859478
Al       9.89181406      17.56172580       0.00196085
Al       7.90786000      15.63206924       4.64756727
Al       7.90734233      17.59462608       6.95928096
Al       9.88614213      15.61418230       6.96608080
Al       9.88458040      17.59859224       4.64871513
Al       7.89716593      15.63027202       9.29545838
Al       7.90387485      17.58050802      11.58548263
Al       9.88005700      15.63516436      11.59788421
Al       9.88317161      17.59001813       9.30590972
Al       7.90903849      15.61998333      13.92366593
Al       7.93031426      17.54515326      16.24210353
Al       9.89228593      15.63511671      16.22613766
Al       9.89428314      17.58289783      13.93331940
Al       7.90353061      15.61525684      18.56319790
Al       7.90421897      17.57752518      20.88085006
Al       9.89215393      15.63453127      20.89824998
Al       9.89699878      17.58754178      18.56152062
Al      11.87200890       0.00156290       0.00046321
Al      11.88007110       1.94839430       2.31085808
Al      13.84507708      -0.01279533       2.32067169
Al      13.84802789       1.94489956      -0.00881728
Al      11.86342959      -0.00764810       4.65853255
Al      11.86547067       1.94790069       6.99096434
Al      13.84276623      -0.00346984       6.96806739
Al      13.86588278       1.96012787       4.63023132
Al      11.85882181       0.00166366       9.27983104
Al      11.87366604       1.94848412      11.61289474
Al      13.86606945       0.01997568      11.59540396
Al      13.85215302       1.94610637       9.28368973
Al      11.89349572       0.00057516      13.93271552
Al      11.86345973       1.93973296      16.24172271
Al      13.84957739       0.00603496      16.25614937
Al      13.85522784       1.95590335      13.92478368
Al      11.87245497      -0.00226056      18.56012306
Al      11.86073320       1.94781322      20.88344382
Al      13.85362817      -0.01020059      20.87501668
Al      13.85145794       1.93656546      18.57321874
Al      11.88017252       3.90279071      -0.00835145
Al      11.88188815       5.86434836       2.31754876
Al      13.84637198       3.90571652       2.32103201
Al      13.85216817       5.86333215       0.00194854
Al      11.86117632       3.89887931       4.63193407
Al      11.87516013       5.85555192       6.96385724
Al      13.85075953       3.90685510       6.95103739
Al      13.86421431       5.84349556       4.62634834
Al      11.86922227       3.89001400       9.28435367
Al      11.86453536       5.87377306      11.61621768
Al      13.86175007       3.91214267      11.61171051
Al      13.86230780       5.86112016       9.27825774
Al      11.87886094       3.92147691      13.91282064
Al      11.88722145       5.86036446      16.24463522
Al      13.84660604       3.90715822      16.24219451
Al      13.85118802       5.84430358      13.92067897
Al      11.85233202       3.90024809      18.56399303
Al      11.87642595       5.86853371      20.86864384
Al      13.85729984       3.91180930      20.86919837
Al      13.85199521       5.86613357      18.56101635
Al      11.85629574       7.81839660      -0.00255679
Al      11.86296223       9.76860780       2.31758595
Al      13.85922610       7.82191250       2.32230991
Al      13.87415661       9.76447379      -0.00325241
Al      11.88616629       7.80992851       4.64231072
Al      11.87867006       9.75841755       6.95892032
Al      13.85368700       7.80749423       6.96479697
Al      13.84981946       9.76814374       4.64342729
Al      11.89421144       7.82520466       9.28541295
Al      11.87940720       9.77548420      11.59934871
Al      13.83602321       7.80054858      11.60047092
Al      13.84793370       9.76271899       9.27531232
Al      11.86912090       7.81304668      13.92085904
Al      11.87915193       9.77355449      16.26361009
Al      13.84256102       7.80492440      16.23276257
Al      13.84397480       9.75799450      13.92299508
Al      11.87756914       7.81788949      18.57189590
Al      11.88393792       9.75448580      20.88549888
Al      13.85089137       7.80131997      20.89453553
Al      13.86475845       9.75408115      18.56691253
Al      11.87425503      11.71294432       0.00734508
Al      11.87749061      13.66298133       2.32042347
Al      13.85767147      11.71287157       2.31772161
Al      13.84737051      13.66790396      -0.01666420
Al      11.87311084      11.72501737       4.65779228
Al      11.87024853      13.67858432       6.96316086
Al      13.85149937      11.70609385       6.95224892
Al      13.85695500      13.69606083       4.65448342
Al      11.86662257      11.72948999       9.28326467
Al      11.86374576      13.66026577      11.59958531
Al      13.85004958      11.71877870      11.60625304
Al      13.84599487      13.66480010       9.27899092
Al      11.84732275      11.71634946      13.90856176
Al      11.86934580      13.67912149      16.24640105
Al      13.83518564      11.71762912      16.24078253
Al      13.84634217      13.68122019      13.93089638
Al      11.86646247      11.71380123      18.57162678
Al      11.85740251      13.65196435      20.87698653
Al      13.84947532      11.73006137      20.88618890
Al      13.84100878      13.67542033      18.57603270
Al      11.87377461      15.61214438       0.01820759
Al      11.87651350      17.57711019       2.31892404
Al      13.84697851      15.62199339       2.32683670
Al      13.83519656      17.59062232       0.01181178
Al      11.89616965      15.62280997       4.63303542
Al      11.85333799      17.57030577       6.95625417
Al      13.84185150      15.63201549       6.95285582
Al      13.84482453      17.59228010       4.64640047
Al      11.86918713      15.63126546       9.27100140
Al      11.85868250      17.59293339      11.60945462
Al      13.86531237      15.63768322      11.60434953
Al      13.84524646      17.58794526       9.27197540
Al      11.88136805      15.61276102      13.92786373
Al      11.87943945      17.58559653      16.24328113
Al      13.83179879      15.61977611      16.23857693
Al      13.82564423      17.56361083      13.91775570
Al      11.86509790      15.60856814      18.56998025
Al      11.88053187      17.58574854      20.87078984
Al      13.84517625      15.61861561      20.90094899
Al      13.85433116      17.57147542      18.55785573
Al      15.83128718       0.00550464       0.01425611
Al      15.83584806       1.96067389       2.30179483
Al      17.80172511      -0.00583452       2.32502482
Al      17.82047994       1.96102679      -0.00289829
Al      15.82180260       0.01366133       4.64260709
Al      15.84757753       1.95741607       6.97324449
Al      17.79135538      -0.00551376       6.95832464
Al      17.80350833       1.94714056       4.64158205
Al      15.82187605      -0.01546379       9.27965402
Al      15.83283477       1.95495743      11.58157417
Al      17.79835496      -0.00904264      11.60010361
Al      17.79449075       1.95889256       9.28452590
Al      15.82364444      -0.00080526      13.92015650
Al      15.80152929       1.96438524      16.25156714
Al      17.80163470       0.01245908      16.22469701
Al      17.79780912       1.95946320      13.90351875
Al      15.82620430       0.01123171      18.58241507
Al      15.83843950       1.95431620      20.88343840
Al      17.79682021      -0.00192807      20.86804891
Al      17.81287705       1.95343189      18.56478291
Al      15.82009768       3.90522170       0.00196282
Al      15.83124468       5.86302155       2.31647138
Al      17.80833194       3.91087359       2.32836809
Al      17.79090238       5.85938538       0.00618522
Al      15.82346051       3.91155751       4.63626884
Al      15.84582416       5.84356877       6.95329927
Al      17.80222062       3.89001633       6.95286117
Al      17.81843536       5.84932986       4.64200629
Al      15.83072704       3.92900476       9.28410850
Al      15.82132996       5.84628792      11.60235861
Al      17.81310825       3.90794794      11.60409120
Al      17.81395137       5.85475190       9.27657203
Al      15.80788473       3.91175143      13.92714921
Al      15.82980666       5.84877534      16.23588321
Al      17.80057956       3.90024838      16.23377455
Al      17.81281093       5.83373886      13.92289815
Al      15.82648764       3.90638091      18.55993733
Al      15.82913638       5.87962788      20.89597613
Al      17.81817457       3.90657730      20.90103626
Al      17.80864703       5.86069332      18.54766118
Al      15.82659723       7.81716491      -0.00196803
Al      15.84010961       9.77089110       2.32209450
Al      17.80985032       7.80166652       2.33640495
Al      17.81994162       9.76763424      -0.00947520
Al      15.83458203       7.81627881       4.61910657
Al      15.82307164       9.75980824       6.95560254
Al      17.78732320       7.80595678       6.95372639
Al      17.79909605       9.77600127       4.64006218
Al      15.83894596       7.82961755       9.27979748
Al      15.82207173       9.75318381      11.60019222
Al      17.82469679       7.81448437      11.60745070
Al      17.81061823       9.76593502       9.26513613
Al      15.83598471       7.82010699      13.93649093
Al      15.83017552       9.76770028      16.25186309
Al      17.80258123       7.83189325      16.23986744
Al      17.80266170       9.77430490      13.91420480
Al      15.81925156       7.80955012      18.54851625
Al      15.82671745       9.76108380      20.89820969
Al      17.81096788       7.81215954      20.89771352
Al      17.80491172       9.78630315      18.56427896
Al      15.82446843      11.72386985       0.00053318
Al      15.81518998      13.67796380       2.31238565
Al      17.79572451      11.72205838       2.35227626
Al      17.79308809      13.68253247      -0.01132457
Al      15.83544877      11.71452046       4.63973949
Al      15.82528611      13.67850997       6.96707243
Al      17.81113390      11.72999165       6.97399237
Al      17.79834436      13.67387743       4.64659349
Al      15.82473241      11.72680735       9.28676341
Al      15.83545363      13.66676273      11.58781647
Al      17.79242302      11.73067225      11.60344528
Al      17.81568032      13.68746452       9.28708313
Al      15.83124485      11.72389921      13.90953662
Al      15.82515991      13.66120607      16.23335983
Al      17.81800386      11.70419709      16.23601614
Al      17.80442025      13.64556755      13.93436643
Al      15.82996123      11.70995177      18.55500480
Al      15.82398017      13.68054800      20.87339408
Al      17.81429288      11.73944100      20.86758910
Al      17.79486851      13.67240434      18.56590132
Al      15.82715364      15.64301653      -0.00167544
Al      15.83401491      17.57422477       2.31317546
Al      17.79919275      15.62126315       2.33860234
Al      17.81110963      17.57868776       0.00016566
Al      15.83292567      15.61816574       4.64861438
Al      15.83036666      17.59876804       6.95712490
Al      17.80301470      15.61693670       6.97113142
Al      17.81262145      17.57304673       4.64952621
Al      15.83365281      15.61616472       9.30785469
Al      15.82802259      17.57677636      11.61883154
Al      17.80029163      15.62072281      11.59533883
Al      17.80080715      17.57261649       9.27909255
Al      15.83880074      15.63838630      13.90767255
Al      15.84327235      17.57747494      16.23939885
Al      17.82317854      15.63623189      16.25584312
Al      17.81796616      17.59095974      13.90536075
Al      15.83112688      15.64156461      18.58208931
Al      15.83101740      17.55234996      20.88455354
Al      17.79402523      15.62741472      20.87483769
Al      17.80666294      17.57504869      18.55443477
