7
Lattice="74.55475242147702 0.0 0.0 0.0 74.55475242147702 0.0 0.0 0.0 74.55475242147702" Properties=species:S:1:pos:R:3:initial_magmoms:R:1 id=sample_001291 pbc="T T T"
Fe      36.67423835      36.64497667      36.65097152       2.30000000
Fe      38.10006723      38.10231106      35.20594919       2.30000000
Fe      38.11524226      35.22503632      38.08194647       2.30000000
Fe      39.54278375      36.67247213      36.65598541       2.30000000
Fe      35.22174872      38.07516776      38.06945583       2.30000000
Fe      36.62583018      39.52862489      36.63073731       2.30000000
Fe      36.66076251      36.64465778      39.55588039       2.30000000
