660
Lattice="80.50634091498273 0.0 0.0 0.0 80.50634091498273 0.0 0.0 0.0 80.50634091498273" Properties=species:S:1:pos:R:3 id=sample_000579 pbc="T T T"
Si      25.13464442      25.13660901      25.13919910
Si      26.48916728      26.51441228      26.50601482
Si      27.84248923      27.85375402      25.13630375
Si      29.21356993      29.22867069      26.49345540
Si      30.56716432      30.56743408      25.13672957
Si      31.92144279      31.91161045      26.47359682
Si      33.29771093      33.29219598      25.13049462
Si      34.61781889      34.64318099      26.51228472
Si      35.99967999      35.99917558      25.14600954
Si      37.36808246      37.34734241      26.50136888
Si      38.71838662      38.71923128      25.13513825
Si      40.06313794      40.08078226      26.50410077
Si      41.43378858      41.44731596      25.13183916
Si      42.79641545      42.78321956      26.49698612
Si      44.15066539      44.15057981      25.13087759
Si      45.47385078      45.51832686      26.51126541
Si      46.86633556      46.86094491      25.12397241
Si      48.21924951      48.20144290      26.50604401
Si      49.57279941      49.58409225      25.13689190
Si      50.93304525      50.94149125      26.49648893
Si      27.86097358      25.12601282      27.85021370
Si      29.21648922      26.50713243      29.21636653
Si      30.58231972      27.86185639      27.85027037
Si      31.91994409      29.21810689      29.20738723
Si      33.27874903      30.58664095      27.85577296
Si      34.62955149      31.90737472      29.21511247
Si      36.01194304      33.28917650      27.87881169
Si      37.35698502      34.63969991      29.19285483
Si      38.72580368      36.00720153      27.85088833
Si      40.06185364      37.37367777      29.21011881
Si      41.43414667      38.71804020      27.85250914
Si      42.77622759      40.08185477      29.21889359
Si      44.15293527      41.43363515      27.86971531
Si      45.51091771      42.78028071      29.21668600
Si      46.85878632      44.14749679      27.84512811
Si      48.21439265      45.52102785      29.20673906
Si      49.57650024      46.87488848      27.83858226
Si      50.92784542      48.22950106      29.20976038
Si      52.29708562      49.57884391      27.84645715
Si      30.57369196      25.15716194      30.56122076
Si      31.93347094      26.47551366      31.90144482
Si      33.27332331      27.84186323      30.55204510
Si      34.63891182      29.19652169      31.93462530
Si      36.00366860      30.56746031      30.58060472
Si      37.35199092      31.93599425      31.92458450
Si      38.71174695      33.29270713      30.55983476
Si      40.08345211      34.64258754      31.93804065
Si      41.42495347      36.01467607      30.57470045
Si      42.78811436      37.35582160      31.93008585
Si      44.14782308      38.73699715      30.56236956
Si      45.51214373      40.06506337      31.91047065
Si      46.85986361      41.44875657      30.58070069
Si      48.22188064      42.78694467      31.93357108
Si      49.58712321      44.15438617      30.54795968
Si      50.91943285      45.50182699      31.93530830
Si      52.30542189      46.86347352      30.59027567
Si      53.65535658      48.22148951      31.93183229
Si      33.28600332      25.13809182      33.28259809
Si      34.62683064      26.51789322      34.64648211
Si      36.01241791      27.85714779      33.27464850
Si      37.36253135      29.21463342      34.63468698
Si      38.70570948      30.57246532      33.28929015
Si      40.06315221      31.93167920      34.63475233
Si      41.43609123      33.27035476      33.28535276
Si      42.78299321      34.64649272      34.65515341
Si      44.15202378      35.99012992      33.28911127
Si      45.50252414      37.35780538      34.64579334
Si      46.86802613      38.72964552      33.29697591
Si      48.22143936      40.05903218      34.63602858
Si      49.56323396      41.43027963      33.28880007
Si      50.92364041      42.79645294      34.64579768
Si      52.29316939      44.14747987      33.29018209
Si      53.65355341      45.50437868      34.63105384
Si      54.99972879      46.85595156      33.29627344
Si      36.01212700      25.13335561      35.99769200
Si      37.35812541      26.49371404      37.34336530
Si      38.71957773      27.84810246      36.00928671
Si      40.07745297      29.21096932      37.34799384
Si      41.43451090      30.56669183      35.99448105
Si      42.80245088      31.91619396      37.36217528
Si      44.14680923      33.29201038      35.98006495
Si      45.49634693      34.63845920      37.35123671
Si      46.85893829      36.00441037      35.98879240
Si      48.22238716      37.33570181      37.35220506
Si      49.57717890      38.69953771      36.00627844
Si      50.91872966      40.07847970      37.35007377
Si      52.28450167      41.41753662      35.97533350
Si      53.63646683      42.78968467      37.34948299
Si      55.02567727      44.14685931      36.01169150
Si      38.71742580      25.12939013      38.72043251
Si      40.07151530      26.49215812      40.07541231
Si      41.42906688      27.85055700      38.72642027
Si      42.80278783      29.20565641      40.07324879
Si      44.14297568      30.57627971      38.70431830
Si      45.49867142      31.93505110      40.07495659
Si      46.85733152      33.27920708      38.72790456
Si      48.22295209      34.65284244      40.06708379
Si      49.58103779      36.00678689      38.69834400
Si      50.94295312      37.35304894      40.08093995
Si      52.27900035      38.72277872      38.71633843
Si      53.66674473      40.07423228      40.07249739
Si      55.01244043      41.43447181      38.71313166
Si      41.42312602      25.15128477      41.42538506
Si      42.77681336      26.49554742      42.79794459
Si      44.14918827      27.84109325      41.46597372
Si      45.49568953      29.20482664      42.79445799
Si      46.84225040      30.57539962      41.45357881
Si      48.23441732      31.91627516      42.78098097
Si      49.57907420      33.27309260      41.42665470
Si      50.94311478      34.64304091      42.78784290
Si      52.29191672      36.00629456      41.43691297
Si      53.64427994      37.37430331      42.80459604
Si      55.00448652      38.71234871      41.43054393
Si      44.13243792      25.12952228      44.15859443
Si      45.52719502      26.49071169      45.47749718
Si      46.87254248      27.85754984      44.15329592
Si      48.20300668      29.20551178      45.51155463
Si      49.57159401      30.58053456      44.14154404
Si      50.93887859      31.93322189      45.50123725
Si      52.28911955      33.29434033      44.15081989
Si      53.64301354      34.64699119      45.50732722
Si      55.00463795      36.00091113      44.12488041
Si      46.86769700      25.14527076      46.85105990
Si      48.22895638      26.49839531      48.22256566
Si      49.56722011      27.84326708      46.85725553
Si      50.94247541      29.20842013      48.22666009
Si      52.29860017      30.57332003      46.85507566
Si      53.66713769      31.91257214      48.21923010
Si      55.00746769      33.28534676      46.86944209
Si      49.56711697      25.13641956      49.57313992
Si      50.93614277      26.50304099      50.93797320
Si      52.29238023      27.84964601      49.58303797
Si      25.14013625      27.84497688      27.84380166
Si      26.51400595      29.22803368      29.21785797
Si      27.86438085      30.58485390      27.86246797
Si      29.21688779      31.93658660      29.20733926
Si      30.58302490      33.29974943      27.84873056
Si      31.91064425      34.63798663      29.21012756
Si      33.29189665      36.00658008      27.85602430
Si      34.65133568      37.34736206      29.21779389
Si      35.99665931      38.70989280      27.83652973
Si      37.35053771      40.08495683      29.22352210
Si      38.70876328      41.43384144      27.84434290
Si      40.07589987      42.78607168      29.23478633
Si      41.44094064      44.13441812      27.85755336
Si      42.79408989      45.50282092      29.19849070
Si      44.15477264      46.87282042      27.85383150
Si      45.48622950      48.23362822      29.22351374
Si      46.87463029      49.58085627      27.83895379
Si      48.20037566      50.94921493      29.20710880
Si      49.56969065      52.28755095      27.85170122
Si      27.83140371      27.86213092      30.55453364
Si      29.19552870      29.21432188      31.90770246
Si      30.56267193      30.56224703      30.59362146
Si      31.91728841      31.93972324      31.94648183
Si      33.28390558      33.27264692      30.56631185
Si      34.63971578      34.63861490      31.92247716
Si      36.00872905      35.98905952      30.56054279
Si      37.34567492      37.36238537      31.91524035
Si      38.73058074      38.71565426      30.56388159
Si      40.07934358      40.07161332      31.92760203
Si      41.42794829      41.42816504      30.56132375
Si      42.78343923      42.78892710      31.92364625
Si      44.15633043      44.14396080      30.56671145
Si      45.49800188      45.50708138      31.93820509
Si      46.87016841      46.85683156      30.55661827
Si      48.21141759      48.21719507      31.91324830
Si      49.57951908      49.56972521      30.56218530
Si      50.92493869      50.92437492      31.91698016
Si      30.55243590      27.84426690      33.29384194
Si      31.93259292      29.21867355      34.64161673
Si      33.27090818      30.56864903      33.27783049
Si      34.62586257      31.94334930      34.64965395
Si      35.99446556      33.30180823      33.28328367
Si      37.38212845      34.64192283      34.63746683
Si      38.73211528      35.99922004      33.27895958
Si      40.05454202      37.35003935      34.64531876
Si      41.43302526      38.71384221      33.29541676
Si      42.78822225      40.07785149      34.62527345
Si      44.16242579      41.43717844      33.28689634
Si      45.51107429      42.78737555      34.63913142
Si      46.85955644      44.14809177      33.28250588
Si      48.20816972      45.50586285      34.62937601
Si      49.58294131      46.86576518      33.28863891
Si      50.92603554      48.21394040      34.64610453
Si      52.27056733      49.57952317      33.27606879
Si      33.29792756      27.84672945      35.99540424
Si      34.65862543      29.20623049      37.36265592
Si      36.01046209      30.57455759      35.99683880
Si      37.37138135      31.92001548      37.35973181
Si      38.72119296      33.29400000      35.99786016
Si      40.07692540      34.63504798      37.35301780
Si      41.44722691      36.01101554      36.00392736
Si      42.78542647      37.34505289      37.36494604
Si      44.14204924      38.71053647      36.00094213
Si      45.50186820      40.07523860      37.35419661
Si      46.86152224      41.44137235      35.98635451
Si      48.21662252      42.79156646      37.34802560
Si      49.57339221      44.15456681      35.98468935
Si      50.92951391      45.51511764      37.34324397
Si      52.30483258      46.85730908      35.99035385
Si      35.99807685      27.84528706      38.70865781
Si      37.35510816      29.21150236      40.06633096
Si      38.72513516      30.58917115      38.71836935
Si      40.06068982      31.93260930      40.07017630
Si      41.42918327      33.27634327      38.71780832
Si      42.79439125      34.64760623      40.07530712
Si      44.14172452      35.99273300      38.70586440
Si      45.50682712      37.36132226      40.08761856
Si      46.84450506      38.72305293      38.71378704
Si      48.20134710      40.08242183      40.07939690
Si      49.56005735      41.43485585      38.71170514
Si      50.94641218      42.79679123      40.08267360
Si      52.29201747      44.13608602      38.72046023
Si      53.65135224      45.51594624      40.05015775
Si      38.71152802      27.85014622      41.43544908
Si      40.07871973      29.22455744      42.78508478
Si      41.42472173      30.55624698      41.44050341
Si      42.77201928      31.92753436      42.78318097
Si      44.13338585      33.27773284      41.42963784
Si      45.49480177      34.63835523      42.79908227
Si      46.87069284      35.98731369      41.41979641
Si      48.23555648      37.35530272      42.79450023
Si      49.59093119      38.70057566      41.45197056
Si      50.95202934      40.07251549      42.78256796
Si      52.28995889      41.41878866      41.44610969
Si      53.66591904      42.77060670      42.76417330
Si      41.42486951      27.84240232      44.13913350
Si      42.78394441      29.21300609      45.51293527
Si      44.13827235      30.55739162      44.14861508
Si      45.50015941      31.94704895      45.50588655
Si      46.84911254      33.25972036      44.15622141
Si      48.22771397      34.63883665      45.47934047
Si      49.56440211      35.98978947      44.14971053
Si      50.93857821      37.33897595      45.50121532
Si      52.29514099      38.70435321      44.13597691
Si      53.66164167      40.06133657      45.52367776
Si      44.16121906      27.84757254      46.85034209
Si      45.50829950      29.20709138      48.20435851
Si      46.84586275      30.56377515      46.86634460
Si      48.24807096      31.93635652      48.20533321
Si      49.57490590      33.29309709      46.86492246
Si      50.92123389      34.64331327      48.22796945
Si      52.29634824      36.00562988      46.85525934
Si      46.87200741      27.85491812      49.58224335
Si      48.22133484      29.21837516      50.93764059
Si      49.57873532      30.55877791      49.58484513
Si      50.90555170      31.91707257      50.92955873
Si      52.31319705      33.28829296      49.57978152
Si      49.57221726      27.85681925      52.30185136
Si      25.15592146      30.58245613      30.58888109
Si      26.49687435      31.91217091      31.90695802
Si      27.86245243      33.31266598      30.57013570
Si      29.20231723      34.64170666      31.92831244
Si      30.54715047      36.00083243      30.56960406
Si      31.92521241      37.37235988      31.91891073
Si      33.28876793      38.70873667      30.57329145
Si      34.65358761      40.06611968      31.92867094
Si      36.00119606      41.42610626      30.59173452
Si      37.36177307      42.78483606      31.92180269
Si      38.71330212      44.15118149      30.56781198
Si      40.07292733      45.51206012      31.91854345
Si      41.42416586      46.84259198      30.58417614
Si      42.80428362      48.21614434      31.93596542
Si      44.13548511      49.57107257      30.58159888
Si      45.50684846      50.93852400      31.92024055
Si      46.84888300      52.28786694      30.55647141
Si      48.22173048      53.64868602      31.92153777
Si      27.85421581      30.58185984      33.27724056
Si      29.22269294      31.90703835      34.63455883
Si      30.56085930      33.28389910      33.28327664
Si      31.92549208      34.65887293      34.66009982
Si      33.27711680      36.00601909      33.27663204
Si      34.64847861      37.36219113      34.64197182
Si      36.00063661      38.68151283      33.26911502
Si      37.35724763      40.05241985      34.64271347
Si      38.72526078      41.42819472      33.29224918
Si      40.06520959      42.78825533      34.65137296
Si      41.41736291      44.12388994      33.27697091
Si      42.77029893      45.49612941      34.62746917
Si      44.12521897      46.83755328      33.26764951
Si      45.48600823      48.21853705      34.63034631
Si      46.84186749      49.59788914      33.27871524
Si      48.21321712      50.92801250      34.62848881
Si      49.58321304      52.28635088      33.26699817
Si      30.56387059      30.58106616      36.00621479
Si      31.92947701      31.92418250      37.36902395
Si      33.28191513      33.29140369      35.98911740
Si      34.64095926      34.66262991      37.35525166
Si      35.99847117      35.98949946      35.98575831
Si      37.35729986      37.35433230      37.35826310
Si      38.71962221      38.71572933      35.99001026
Si      40.07598398      40.07690276      37.37285364
Si      41.41932441      41.45411828      36.01245081
Si      42.79400818      42.77927250      37.37138897
Si      44.15200056      44.13861988      36.00432697
Si      45.51479569      45.50784874      37.36895167
Si      46.86942221      46.86688127      35.99752438
Si      48.19733049      48.22112150      37.36270303
Si      49.57706495      49.57535471      35.99516243
Si      33.27686102      30.57667371      38.71429204
Si      34.63055093      31.92350623      40.05282581
Si      36.00414934      33.27721109      38.73340998
Si      37.36747021      34.66410411      40.05461570
Si      38.71232028      35.99796429      38.72014216
Si      40.06282835      37.35414393      40.05867285
Si      41.41108905      38.71867363      38.70730281
Si      42.79992263      40.06569238      40.08716191
Si      44.14761410      41.43375881      38.72132286
Si      45.52135902      42.77544460      40.08004541
Si      46.84805874      44.13861738      38.69722792
Si      48.21323708      45.49779959      40.08004168
Si      49.59131923      46.86511792      38.71587718
Si      50.95199134      48.22855809      40.06394308
Si      36.02202263      30.56326210      41.43239460
Si      37.36118073      31.92848793      42.79816844
Si      38.70683775      33.28634630      41.43151137
Si      40.07059809      34.64985962      42.78949400
Si      41.44440096      36.01150461      41.42459719
Si      42.79734387      37.35380498      42.79265309
Si      44.16441049      38.71688397      41.43057782
Si      45.50659983      40.08114289      42.80291075
Si      46.85632594      41.44636414      41.41932399
Si      48.22537674      42.76645534      42.77868331
Si      49.54716715      44.14590890      41.45231272
Si      50.91818661      45.49893958      42.79025947
Si      38.72647271      30.56514861      44.14865296
Si      40.06905207      31.93307827      45.51592814
Si      41.44219333      33.28883789      44.12853167
Si      42.80200464      34.65820959      45.50719746
Si      44.15869698      35.99354760      44.13614960
Si      45.51073295      37.36910312      45.49965372
Si      46.87697451      38.71754099      44.15356121
Si      48.22409818      40.07121338      45.51801744
Si      49.57189348      41.42883226      44.14639098
Si      50.94110889      42.79295796      45.51586769
Si      52.28421625      44.12863887      44.15914629
Si      41.43597467      30.56686214      46.86931231
Si      42.79985753      31.92360542      48.21607242
Si      44.14432573      33.29175473      46.85877342
Si      45.49981130      34.63640623      48.22597988
Si      46.86787862      36.01670241      46.86842816
Si      48.22345074      37.35579666      48.20537928
Si      49.56610436      38.71460844      46.86433621
Si      50.92919940      40.06803965      48.22135433
Si      44.14162213      30.58526286      49.60445739
Si      45.51306875      31.94613781      50.93766483
Si      46.85129085      33.28543823      49.56973873
Si      48.19926597      34.62691999      50.93981553
Si      49.59550211      35.98674322      49.56256860
Si      46.86813606      30.58580841      52.28578829
Si      48.22674387      31.91739474      53.63516217
Si      49.57877158      33.27451689      52.30652500
Si      25.14044896      33.28365251      33.29470570
Si      26.50195136      34.64712079      34.64130960
Si      27.86483421      36.00789285      33.28069646
Si      29.19814743      37.36254058      34.64739934
Si      30.57706950      38.70633855      33.27913867
Si      31.92129937      40.05246116      34.64222454
Si      33.28164666      41.42071831      33.28347183
Si      34.63734353      42.79492115      34.62768921
Si      35.99377966      44.15129296      33.27413780
Si      37.33899579      45.49221744      34.63127247
Si      38.70084791      46.85017097      33.28053572
Si      40.07192832      48.21949209      34.63864924
Si      41.43681919      49.57876553      33.30637704
Si      42.79662778      50.91894445      34.64495386
Si      44.14466811      52.29323409      33.29015334
Si      45.49116479      53.64813805      34.61609104
Si      46.86193602      54.99876761      33.26728180
Si      27.85437444      33.28729104      36.00009456
Si      29.19777607      34.63312137      37.34455293
Si      30.59095269      35.99295038      35.99297778
Si      31.94822176      37.37585276      37.35153264
Si      33.29370860      38.69709581      35.99673225
Si      34.62896166      40.06386406      37.36172788
Si      36.00463848      41.43846980      36.01409535
Si      37.36216994      42.77789238      37.35658910
Si      38.70057246      44.15450417      35.98150214
Si      40.08264262      45.50998958      37.34823419
Si      41.44472220      46.86437028      35.98923546
Si      42.78230079      48.22118831      37.35383758
Si      44.14103838      49.59223835      35.99736189
Si      45.51515111      50.92326854      37.35000717
Si      46.86390575      52.28893976      36.01991948
Si      30.57132722      33.26415937      38.72055383
Si      31.91797812      34.62886976      40.06678875
Si      33.27681650      36.00399833      38.71434889
Si      34.66126978      37.36333174      40.07092700
Si      35.98893673      38.71136835      38.70729873
Si      37.37344717      40.09007372      40.07024740
Si      38.70701370      41.43470933      38.69718349
Si      40.08646361      42.79502172      40.07337089
Si      41.42404502      44.15371203      38.72551938
Si      42.79423359      45.50076293      40.08175664
Si      44.15067014      46.86474651      38.71148793
Si      45.50539912      48.20079625      40.05853955
Si      46.85061259      49.57863178      38.70267915
Si      48.22077723      50.94350483      40.07930513
Si      33.27563950      33.26989015      41.44697588
Si      34.65017091      34.63873784      42.78443887
Si      36.01002263      36.00802478      41.44021902
Si      37.36830842      37.34778654      42.79667544
Si      38.73083867      38.70482356      41.42782846
Si      40.07298192      40.07630994      42.80064036
Si      41.42495483      41.43976413      41.43227555
Si      42.77589274      42.78827216      42.78914131
Si      44.13502077      44.14846218      41.42733605
Si      45.51629281      45.51328378      42.79139848
Si      46.86876609      46.86332641      41.42443287
Si      48.20644790      48.21919080      42.77235375
Si      49.56903936      49.56352019      41.41920268
Si      35.98551143      33.29055663      44.13582427
Si      37.35731477      34.63213183      45.50346734
Si      38.71757088      35.98024097      44.16285039
Si      40.07393445      37.37309872      45.50681244
Si      41.44782643      38.72044226      44.14903660
Si      42.80043430      40.07983605      45.52197306
Si      44.15236484      41.43584806      44.13746002
Si      45.51053800      42.77957859      45.49705029
Si      46.83921429      44.15701711      44.15581581
Si      48.21199806      45.48783516      45.49846501
Si      49.57858798      46.86423918      44.14702382
Si      38.72157657      33.28131019      46.86815823
Si      40.06614479      34.64124497      48.22113425
Si      41.44667994      36.00623829      46.86599393
Si      42.78579816      37.36294912      48.21733363
Si      44.14920842      38.71382346      46.87270500
Si      45.50424067      40.08011540      48.21507075
Si      46.86097076      41.42124067      46.86554952
Si      48.21962382      42.77839318      48.22643048
Si      49.56417624      44.13474127      46.87703680
Si      41.44165426      33.27353781      49.57728771
Si      42.78082030      34.64341619      50.93117054
Si      44.14315853      35.99138607      49.57931818
Si      45.47968987      37.35847646      50.91840628
Si      46.86592328      38.71387219      49.57445522
Si      48.19507695      40.07038595      50.95541594
Si      49.55698613      41.45272839      49.58514687
Si      44.15132523      33.29173494      52.27276280
Si      45.50181940      34.64230143      53.65600113
Si      46.85899492      35.98932093      52.30652149
Si      46.85938085      33.29196621      55.00954799
Si      25.14778965      36.01195683      35.99478021
Si      26.50670600      37.35669670      37.34900169
Si      27.87292914      38.71372682      36.01306449
Si      29.21126417      40.07754088      37.36281973
Si      30.57701357      41.42916776      35.98773186
Si      31.91828936      42.78993733      37.35333967
Si      33.28529358      44.13473529      36.00354702
Si      34.65371160      45.50500135      37.36127133
Si      35.98412030      46.84799623      35.99918719
Si      37.35546183      48.22823598      37.35708953
Si      38.70364290      49.56651198      35.98815351
Si      40.06281106      50.95387817      37.36068066
Si      41.44849694      52.29816727      36.01681554
Si      42.79572166      53.65801692      37.35657178
Si      44.16014455      55.01698323      35.98348314
Si      27.85377006      35.98531760      38.72715558
Si      29.20305242      37.35267686      40.08679711
Si      30.57927946      38.73401383      38.71120860
Si      31.92529275      40.07546690      40.06396935
Si      33.29179055      41.42504226      38.71918128
Si      34.64999049      42.77009559      40.07530802
Si      35.99319118      44.15381606      38.71922423
Si      37.35407884      45.49659382      40.06631074
Si      38.70730363      46.86295316      38.73003813
Si      40.06855464      48.21661621      40.06853694
Si      41.41749747      49.56907978      38.70119389
Si      42.79565468      50.92996162      40.04951344
Si      44.15859724      52.30751431      38.70229355
Si      45.50331141      53.65533003      40.07471076
Si      30.57657719      36.00670551      41.44196640
Si      31.93710946      37.35365441      42.79497678
Si      33.30172028      38.71359843      41.43888278
Si      34.64027885      40.06562149      42.80313018
Si      35.99200309      41.44019493      41.43479554
Si      37.34713851      42.78131132      42.81520403
Si      38.70876784      44.14872654      41.42430955
Si      40.06531888      45.50252820      42.81167096
Si      41.43566301      46.87497778      41.43972162
Si      42.79844858      48.23373091      42.78011048
Si      44.14856138      49.57985106      41.43745034
Si      45.52172177      50.94423705      42.79512329
Si      33.27331144      35.98077869      44.13375595
Si      34.63187059      37.35947512      45.51187818
Si      35.99758817      38.72877578      44.14301748
Si      37.36097846      40.07053954      45.50398435
Si      38.72171008      41.45564949      44.16024586
Si      40.07543612      42.79511029      45.51420629
Si      41.40640219      44.14447450      44.14426717
Si      42.80569908      45.51080976      45.48919297
Si      44.14689937      46.86152699      44.14443935
Si      45.51465372      48.21398552      45.48968214
Si      46.87240028      49.57470177      44.15663851
Si      35.99848925      36.01147550      46.86316353
Si      37.35922153      37.34778734      48.20426607
Si      38.71855823      38.70978607      46.85768340
Si      40.08325351      40.09135974      48.21690519
Si      41.42267523      41.41200138      46.86501429
Si      42.80733952      42.78839585      48.21872288
Si      44.14931587      44.13326678      46.86479640
Si      45.52252814      45.49871169      48.20753896
Si      46.84355148      46.84817468      46.86481332
Si      38.70560774      36.00249302      49.57489103
Si      40.07690590      37.38426777      50.92682149
Si      41.43272514      38.71295120      49.56965941
Si      42.76887253      40.07140137      50.92393701
Si      44.14240966      41.42473294      49.58764964
Si      45.50729031      42.78525749      50.92451014
Si      46.84902555      44.13305743      49.58490389
Si      41.42736346      35.98330924      52.31334257
Si      42.79283880      37.35943304      53.64200476
Si      44.14240846      38.70594924      52.29661026
Si      45.50458556      40.07957423      53.63513615
Si      44.15396404      35.99921146      55.02096514
Si      25.15403815      38.71674646      38.72753110
Si      26.50671387      40.07594475      40.07343286
Si      27.88158086      41.42448921      38.71483271
Si      29.20846734      42.79184993      40.07320737
Si      30.55688265      44.16156609      38.70940717
Si      31.92811878      45.49890296      40.08694548
Si      33.28148151      46.84651657      38.70109410
Si      34.66019646      48.21816566      40.07656964
Si      35.99656247      49.57272084      38.72099018
Si      37.37561011      50.94114925      40.06431420
Si      38.71876481      52.27958954      38.70988432
Si      40.08084439      53.66468015      40.06841102
Si      41.42812140      55.01670308      38.71555982
Si      27.83647112      38.69767637      41.43309062
Si      29.20939816      40.08249560      42.79153493
Si      30.56188126      41.43395443      41.42549107
Si      31.93672787      42.78931350      42.79666459
Si      33.27777378      44.14721333      41.42686579
Si      34.64633914      45.51913580      42.77993005
Si      35.98336790      46.85904521      41.41664041
Si      37.37963905      48.21292024      42.78060079
Si      38.71930805      49.59212757      41.42334648
Si      40.06279062      50.95351233      42.78804088
Si      41.42677176      52.29800506      41.42771414
Si      42.80523974      53.66312765      42.79276322
Si      30.55487267      38.71064356      44.14321774
Si      31.93263125      40.06788715      45.51552668
Si      33.28047087      41.44026239      44.13940126
Si      34.63501699      42.80111861      45.51923746
Si      36.00180954      44.15221556      44.13408762
Si      37.35654763      45.50446730      45.50426058
Si      38.69922004      46.85667060      44.14824846
Si      40.07178010      48.21675979      45.50142112
Si      41.43403977      49.55993581      44.13418783
Si      42.79312749      50.95567824      45.49562927
Si      44.14190279      52.30210757      44.15135201
Si      33.29048762      38.71990628      46.83788203
Si      34.65201701      40.07957986      48.22270199
Si      35.99865788      41.43362489      46.88634279
Si      37.35315519      42.79661374      48.21432523
Si      38.72089667      44.13719143      46.87061423
Si      40.09904219      45.50942264      48.21120733
Si      41.43990934      46.86516051      46.87347795
Si      42.80217321      48.21023560      48.22835995
Si      44.14641219      49.56329841      46.85303231
Si      36.00449869      38.71858572      49.58252707
Si      37.37765205      40.07001247      50.93598159
Si      38.71284116      41.42572674      49.57643520
Si      40.06862348      42.79985472      50.93549621
Si      41.43205881      44.15514895      49.57054571
Si      42.78846734      45.49602594      50.93435858
Si      44.13296286      46.85585079      49.56822994
Si      38.71509025      38.70748400      52.29358545
Si      40.05902308      40.05975633      53.65708707
Si      41.42704620      41.43813710      52.30383357
Si      42.79120358      42.76945743      53.67599046
Si      44.14546979      44.13889431      52.29402057
Si      41.41010434      38.71973703      55.01893721
Si      25.13842667      41.44464739      41.44212171
Si      26.48403169      42.76605640      42.78141928
Si      27.83764902      44.15694460      41.43041522
Si      29.21992239      45.48656009      42.78862464
Si      30.58264138      46.86284782      41.42760205
Si      31.91114033      48.21048283      42.78262658
Si      33.29352309      49.56404772      41.43887478
Si      34.63690629      50.92118342      42.79434749
Si      36.00147559      52.28419555      41.44900370
Si      37.33713364      53.65849805      42.78347311
Si      38.71911690      55.00445618      41.41922185
Si      27.86523897      41.43550598      44.14141604
Si      29.20748971      42.79533928      45.51058189
Si      30.57113598      44.14007826      44.13976596
Si      31.94654790      45.49367669      45.49776863
Si      33.28338543      46.86785541      44.14256168
Si      34.64416883      48.21301128      45.52703183
Si      36.01085585      49.57157426      44.14377555
Si      37.34603845      50.92952054      45.50958913
Si      38.71602572      52.29192436      44.16522538
Si      40.09084895      53.65861329      45.50433385
Si      30.55594115      41.42498390      46.87146719
Si      31.93101611      42.79318525      48.21758266
Si      33.28772805      44.13698409      46.87834927
Si      34.63947681      45.49492139      48.22550052
Si      36.00709935      46.85964315      46.85855807
Si      37.33798885      48.22433489      48.22240337
Si      38.73472961      49.58680576      46.86813343
Si      40.08549978      50.93482310      48.22085721
Si      33.29806787      41.41535242      49.57993676
Si      34.62494084      42.77870579      50.94553775
Si      35.99697021      44.14284948      49.58130081
Si      37.35512062      45.51164399      50.92486731
Si      38.71853558      46.86491494      49.57438226
Si      40.07144761      48.21730588      50.95204106
Si      41.44493798      49.58033177      49.58542531
Si      35.99033712      41.42452853      52.29666130
Si      37.35218068      42.79636206      53.63346338
Si      38.70133678      44.14238784      52.32132527
Si      40.07834651      45.50121422      53.63675411
Si      38.71669299      41.42561692      55.01066994
Si      25.13324764      44.12878229      44.15834622
Si      26.49033102      45.50871955      45.48431321
Si      27.84833539      46.85943855      44.14664405
Si      29.21923793      48.19929517      45.50941746
Si      30.56981462      49.57413836      44.14863445
Si      31.93135030      50.95570178      45.50992742
Si      33.30717829      52.28788080      44.15525961
Si      34.62917978      53.65022322      45.49418027
Si      35.98993433      55.00756480      44.13571718
Si      27.85217130      44.14114368      46.85535456
Si      29.19584733      45.51226275      48.22181740
Si      30.57506015      46.86367209      46.87173330
Si      31.90120345      48.23807139      48.20199542
Si      33.27943154      49.57559096      46.86348750
Si      34.64604626      50.92255706      48.22123387
Si      36.00196417      52.30100642      46.86404310
Si      30.55997104      44.14226889      49.58347865
Si      31.92648074      45.50193616      50.94591080
Si      33.28229414      46.85518109      49.57720430
Si      34.64173594      48.22684914      50.94040172
Si      35.98920264      49.55125069      49.57964849
Si      33.28687348      44.16141811      52.29271263
Si      34.64367162      45.50106038      53.62458517
Si      35.98779415      46.87598344      52.28108178
Si      35.99028024      44.16635106      54.99153267
Si      25.16251373      46.85870287      46.86657572
Si      26.50455671      48.21675247      48.20648536
Si      27.86120150      49.56087055      46.86919185
Si      29.20344228      50.93222459      48.20314639
Si      30.56951459      52.29232433      46.86617518
Si      31.92549031      53.63501927      48.23558755
Si      33.28381949      55.00876826      46.85924045
Si      27.84004616      46.87416248      49.57102872
Si      29.21309601      48.24266763      50.93054682
Si      30.54923134      49.58096348      49.58330502
Si      31.93035328      50.91997544      50.92617473
Si      33.28584619      52.30455479      49.57646632
Si      30.56540054      46.85953604      52.28416653
Si      31.93697705      48.23078308      53.65037315
Si      33.28043436      49.58036076      52.28293234
Si      33.28108852      46.86154645      55.01100724
Si      25.15990381      49.56568784      49.57624144
Si      26.49378837      50.94155953      50.92629975
Si      27.84676500      52.26738110      49.57597136
Si      27.84590510      49.56715997      52.28465266
