108
Lattice="14.647225134708197 0.0 0.0 0.0 11.507323403316969 0.0 0.0 0.0 13.804247024042887" Properties=species:S:1:pos:R:3 id=sample_001622 pbc="F F F"
Au       0.00051379      -0.00683598       0.00840240
Au      -0.01416764       1.93082345       2.29027259
Au       2.44933119      -0.01694202       2.28129600
Au       2.45033218       1.92253700       0.01465681
Au      -0.00660897       0.02039571       4.62011622
Au      -0.00787167       1.92979167       6.88747391
Au       2.45192321      -0.00333106       6.89308653
Au       2.42398933       1.93653526       4.59087003
Au      -0.01103935       0.01568823       9.20967935
Au       0.01872142       1.91354140      11.49889251
Au       2.44911359      -0.01449595      11.51274390
Au       2.46378008       1.94501040       9.20593256
Au      -0.01204155       3.82249048       0.00419538
Au      -0.01532752       5.76971817       2.28754209
Au       2.42213777       3.83568567       2.30093875
Au       2.39165869       5.76713300      -0.02410319
Au      -0.02354832       3.85246653       4.59180539
Au      -0.00850554       5.76350864       6.90992136
Au       2.46590564       3.83987822       6.89266628
Au       2.44840941       5.75553221       4.60445168
Au       0.00650226       3.84929479       9.21907368
Au       0.00561136       5.73593752      11.51270897
Au       2.44669144       3.82241473      11.52181925
Au       2.44897343       5.75324370       9.21574516
Au      -0.04182051       7.65896112       0.00927679
Au       0.01963849       9.58949073       2.29134869
Au       2.43843608       7.68618630       2.30601692
Au       2.43721940       9.60003111      -0.00070271
Au      -0.00537017       7.65380806       4.59130666
Au       0.01270103       9.60556438       6.90129706
Au       2.46261868       7.70939707       6.88610372
Au       2.45489378       9.59132193       4.60168503
Au       0.00093140       7.66263089       9.21949310
Au       0.01249311       9.59924239      11.51339605
Au       2.44894297       7.68650672      11.50991039
Au       2.45467682       9.57873579       9.20116399
Au       4.86291499       0.02093981       0.01956977
Au       4.88441525       1.91084417       2.32464754
Au       7.31816790       0.00168967       2.28980147
Au       7.30398927       1.89934966       0.01089887
Au       4.88410666      -0.00705566       4.60165982
Au       4.89292111       1.90690179       6.89554881
Au       7.32469869      -0.00250866       6.88185027
Au       7.31280088       1.90228267       4.59472386
Au       4.88548427      -0.02669620       9.17235186
Au       4.89261090       1.92304239      11.50626531
Au       7.32481926       0.00720852      11.50385528
Au       7.29047407       1.90843995       9.19311707
Au       4.89902051       3.83386553      -0.01661528
Au       4.89151130       5.74298332       2.27777421
Au       7.33080770       3.83191456       2.28933207
Au       7.32316589       5.74914417      -0.00034167
Au       4.87525090       3.83035985       4.62574156
Au       4.85756330       5.74813256       6.89724636
Au       7.30280552       3.82406435       6.88988986
Au       7.31133041       5.75066589       4.59232005
Au       4.89092326       3.82796070       9.19996713
Au       4.90020967       5.76433025      11.50935733
Au       7.30569354       3.83211436      11.51972485
Au       7.34067486       5.77002409       9.17536813
Au       4.88538005       7.65074720       0.00800319
Au       4.89604445       9.60981365       2.29297017
Au       7.33589449       7.67872722       2.30484411
Au       7.31807340       9.56636701      -0.00669411
Au       4.87959169       7.68697469       4.61454416
Au       4.89071908       9.61702907       6.89342913
Au       7.30058939       7.68508345       6.91349289
Au       7.30575013       9.58266003       4.63055702
Au       4.88993629       7.67332123       9.23140079
Au       4.89642090       9.60461876      11.51957937
Au       7.32982790       7.67513662      11.51586317
Au       7.32798104       9.62650386       9.17855042
Au       9.74817469       0.00931144      -0.03287673
Au       9.75841181       1.91348767       2.28987652
Au      12.20598478      -0.02674047       2.29343320
Au      12.19993328       1.92575358      -0.00529577
Au       9.79264629       0.00743033       4.59913668
Au       9.76292574       1.91068833       6.89368532
Au      12.20414641       0.00315999       6.93737459
Au      12.19743130       1.93615390       4.61839996
Au       9.74194497       0.01341814       9.22698197
Au       9.76068230       1.90728433      11.50352817
Au      12.20707090       0.00096845      11.49731698
Au      12.19068151       1.92226006       9.19975472
Au       9.75646109       3.84014007       0.02850374
Au       9.76585380       5.75803410       2.31654097
Au      12.19609967       3.83297136       2.31809909
Au      12.21938711       5.76244388       0.00678343
Au       9.76800619       3.85326820       4.60268058
Au       9.76570887       5.73813882       6.88623666
Au      12.20866488       3.83226159       6.91523455
Au      12.20368996       5.73634541       4.60336751
Au       9.78313144       3.83858486       9.21562116
Au       9.78445228       5.72954991      11.49915128
Au      12.19747324       3.84386657      11.49832862
Au      12.20394616       5.76384770       9.17990464
Au       9.74903125       7.69494964       0.01177083
Au       9.77464439       9.58522702       2.30102439
Au      12.21547758       7.67392393       2.31374842
Au      12.22174763       9.58483707      -0.01168978
Au       9.76054402       7.66037206       4.59448905
Au       9.77035891       9.60544604       6.92319890
Au      12.21995016       7.70126688       6.89240220
Au      12.19202182       9.58622077       4.60767564
Au       9.76761667       7.65736730       9.19194946
Au       9.77451397       9.56573053      11.50158394
Au      12.22287984       7.66663273      11.50536064
Au      12.22582484       9.59748943       9.19054879
