41
Lattice="124.59046153006739 0.0 0.0 0.0 124.59046153006739 0.0 0.0 0.0 124.59046153006739" Properties=species:S:1:pos:R:3:initial_magmoms:R:1 id=sample_000168 pbc="T T T"
Fe      60.73888309      60.70967548      60.72403206       2.30000000
Fe      62.14260145      62.15848235      59.30242463       2.30000000
Fe      63.58059024      63.59221030      57.84540205       2.30000000
Fe      65.01591697      65.03153284      56.41306807       2.30000000
Fe      66.45512691      66.45696699      54.99831076       2.30000000
Fe      62.14120236      59.28823042      62.15641904       2.30000000
Fe      63.59011998      60.72299677      60.72701552       2.30000000
Fe      65.03162619      62.14184639      59.26717083       2.30000000
Fe      66.44660609      63.59443211      57.85199337       2.30000000
Fe      63.57998323      57.86720660      63.58729812       2.30000000
Fe      65.00957178      59.29219148      62.15314811       2.30000000
Fe      66.44081430      60.70611272      60.72141876       2.30000000
Fe      65.03655841      56.41891891      65.03105550       2.30000000
Fe      66.47528730      57.84768376      63.58725644       2.30000000
Fe      66.45599706      54.97592332      66.45738314       2.30000000
Fe      59.30183469      62.15186988      62.15386500       2.30000000
Fe      60.73212233      63.56995908      60.71971831       2.30000000
Fe      62.15938429      65.02650789      59.28307730       2.30000000
Fe      63.59753247      66.44721970      57.85465944       2.30000000
Fe      60.72345868      60.71785482      63.58487330       2.30000000
Fe      62.14567733      62.14201034      62.14291311       2.30000000
Fe      63.58178009      63.60349703      60.71956507       2.30000000
Fe      65.02215122      65.03908285      59.28055944       2.30000000
Fe      62.16413211      59.29011311      65.00757945       2.30000000
Fe      63.59948886      60.71376785      63.57993646       2.30000000
Fe      65.02501577      62.14161160      62.15824307       2.30000000
Fe      63.60172715      57.87066522      66.45922458       2.30000000
Fe      65.02073351      59.27950638      65.03133520       2.30000000
Fe      57.87507892      63.58061110      63.58567003       2.30000000
Fe      59.28077238      65.02309063      62.15282355       2.30000000
Fe      60.73233039      66.44819509      60.72491400       2.30000000
Fe      59.28564854      62.15446793      65.03527778       2.30000000
Fe      60.72318694      63.60106241      63.59219768       2.30000000
Fe      62.14619252      65.02366113      62.17046362       2.30000000
Fe      60.72133706      60.72923534      66.45217209       2.30000000
Fe      62.16750195      62.13143722      65.03821344       2.30000000
Fe      56.42071474      65.02487994      65.00173984       2.30000000
Fe      57.84013695      66.43456236      63.60784919       2.30000000
Fe      57.85721196      63.59671133      66.45477478       2.30000000
Fe      59.29420481      65.04263522      65.02541177       2.30000000
Fe      54.99723701      66.45933340      66.45993829       2.30000000
