108
Lattice="12.347658907204483 0.0 0.0 0.0 12.076026255833625 0.0 0.0 0.0 12.021658282800685" Properties=species:S:1:pos:R:3 id=sample_000521 pbc="F F F"
Au      -0.00174362       0.00541682      -0.00054025
Au      -0.01410008       2.01884843       1.99526639
Au       2.05588367      -0.00330675       1.99670798
Au       2.09274617       1.99458335       0.00823194
Au      -0.00784773       0.02153849       3.99818732
Au       0.00258603       2.01207051       6.02162660
Au       2.03236259       0.00703890       6.00046695
Au       2.04594035       2.01104167       3.99875661
Au      -0.01784395       0.00613050       7.98792438
Au       0.00723178       2.00188528      10.01775345
Au       2.04222179       0.02685082      10.03647946
Au       2.05986644       2.01652659       8.02848352
Au       0.02531082       4.02486649       0.00197077
Au      -0.02614276       6.03802355       1.99878430
Au       2.07651361       4.03275575       1.99378734
Au       2.07525345       6.04781362       0.00732621
Au      -0.00735833       4.02756131       3.99933648
Au       0.00449612       6.03025042       5.99118884
Au       2.05139347       4.05385753       6.01623888
Au       2.06579463       6.03348084       4.00495825
Au       0.00080143       4.01504847       8.03453567
Au      -0.00871848       6.02777141      10.03285324
Au       2.04638704       4.02982759      10.02557379
Au       2.06598491       6.01559479       7.98284691
Au      -0.00904812       8.04103070      -0.00659309
Au      -0.02458238      10.06615813       2.00761652
Au       2.05850576       8.02421063       2.00972414
Au       2.06309635      10.06360118      -0.01703782
Au      -0.01321115       8.07067734       4.03392359
Au       0.00686547      10.06949521       5.99199364
Au       2.05027170       8.06010138       6.02582989
Au       2.05289524      10.06436415       4.00647348
Au       0.01645014       8.04184944       8.03449324
Au      -0.00313159      10.06088041      10.05649738
Au       2.04407171       8.03761513      10.01840508
Au       2.04795587      10.06396645       8.01024796
Au       4.11514338       0.00056666      -0.00259270
Au       4.10853944       2.00937039       2.00525974
Au       6.17625395      -0.00171661       1.98907342
Au       6.17201976       2.02452272      -0.00730061
Au       4.12604913       0.01221941       4.01832072
Au       4.09919548       2.03795526       6.00570779
Au       6.14395487      -0.02500318       5.99589199
Au       6.19886300       2.00686600       4.01334951
Au       4.11192624       0.00190786       8.00136810
Au       4.12065567       2.00397384      10.00763904
Au       6.14124855       0.00694374      10.01879819
Au       6.16989664       2.03236831       8.01756703
Au       4.11597042       4.02050578      -0.01006673
Au       4.11241344       6.02561295       2.01353853
Au       6.17241730       4.02335613       1.98238550
Au       6.15828401       6.03520613      -0.02388482
Au       4.11234601       4.05111366       4.00263748
Au       4.10958743       6.02558759       5.98972791
Au       6.18336120       4.01102159       6.03143162
Au       6.18901198       6.04373812       4.00182418
Au       4.10752496       4.03378891       8.02161095
Au       4.10931088       6.03573423      10.01700063
Au       6.19420149       4.03311071      10.01979015
Au       6.16633097       6.03960221       8.00061961
Au       4.11561044       8.03940144       0.00790364
Au       4.12286069      10.07601358       2.01403802
Au       6.16234681       8.07865229       1.99844773
Au       6.14624499      10.07445733       0.00322178
Au       4.12256928       8.05121868       4.01735182
Au       4.11973608      10.06877421       6.02595896
Au       6.18805518       8.08369093       6.02452409
Au       6.18607910      10.06818961       3.99255985
Au       4.13071942       8.04085134       8.00669267
Au       4.12106733      10.06238429      10.04005304
Au       6.17148088       8.05883725      10.01293118
Au       6.18299379      10.07553623       8.02095561
Au       8.24049766       0.00495307       0.01665852
Au       8.22451140       2.01626160       1.99630297
Au      10.26683356      -0.01075086       1.97906530
Au      10.28596970       2.03514341       0.00987687
Au       8.24595510       0.01060715       4.02054497
Au       8.24738080       2.00282771       5.99791269
Au      10.30218750       0.00435723       6.00608872
Au      10.27874960       1.99042918       4.01037958
Au       8.21224100      -0.00376450       8.02096126
Au       8.21515437       2.01175643      10.01354185
Au      10.26895058       0.00559598      10.03016433
Au      10.30641987       1.99730351       8.00239091
Au       8.23875022       4.02634299      -0.00183450
Au       8.24669172       6.06091310       2.01102007
Au      10.30730725       4.04583599       1.99459406
Au      10.31479713       6.04727368       0.01744743
Au       8.22159817       4.01521283       4.01917888
Au       8.23215981       6.03308760       6.04250077
Au      10.32456206       4.02159432       6.02835617
Au      10.27510017       6.04356631       4.00207508
Au       8.21384409       4.01957795       7.97980429
Au       8.23286232       6.04056242      10.02514000
Au      10.28206638       4.03124279      10.00223008
Au      10.28204898       6.02775739       8.00000732
Au       8.21049664       8.04505571       0.01118643
Au       8.22232062      10.08936764       1.99443266
Au      10.29227996       8.03999730       2.00136900
Au      10.28341667      10.03729034      -0.01434263
Au       8.23773114       8.03337915       4.00813415
Au       8.25549547      10.06444535       6.01665265
Au      10.28784692       8.04034312       6.04763185
Au      10.29194912      10.05348670       4.01780077
Au       8.22788428       8.06739890       8.01908379
Au       8.19681852      10.05705228      10.01284668
Au      10.30713471       8.04315779      10.01066128
Au      10.27317297      10.05774194       8.05274490
