452
Lattice="66.21666979131541 0.0 0.0 0.0 66.21666979131541 0.0 0.0 0.0 66.21666979131541" Properties=species:S:1:pos:R:3 id=sample_001373 pbc="T T T"
Al      20.93553674      20.91792435      20.91436185
Al      22.93991224      22.94672306      20.91917661
Al      24.97405930      24.97124756      20.91093523
Al      26.99052157      27.00126107      20.94568064
Al      29.02672689      29.02580376      20.91470143
Al      31.04181741      31.04788122      20.91219621
Al      33.07927562      33.06254330      20.92503394
Al      35.10183989      35.10567528      20.92367602
Al      37.13262259      37.12399010      20.94405532
Al      39.15226467      39.14617219      20.93055657
Al      41.18417005      41.16920341      20.91532058
Al      22.92097847      20.93235265      22.93930653
Al      24.98373608      22.93870536      22.95068983
Al      26.99392451      24.95543418      22.93538923
Al      29.02292590      26.99714900      22.95050268
Al      31.06369857      29.02948936      22.96318080
Al      33.07782140      31.05360769      22.92924163
Al      35.09911517      33.07184045      22.94410113
Al      37.11825688      35.09769611      22.93470184
Al      39.12507630      37.12876294      22.95687899
Al      41.18117646      39.15862265      22.94688520
Al      43.20524718      41.17303534      22.93074482
Al      24.96921638      20.93606027      24.96852900
Al      27.00992263      22.96768730      24.97731557
Al      29.01929680      24.97467963      24.97847019
Al      31.05493684      26.97935192      24.96825326
Al      33.06958324      29.02251022      24.96052546
Al      35.08942241      31.03276532      24.97010087
Al      37.13455552      33.07930275      24.95642867
Al      39.13623008      35.08674709      24.97732906
Al      41.17955525      37.11336997      24.99251355
Al      43.21011002      39.15288318      24.96812221
Al      27.00570305      20.93039586      27.00112531
Al      29.02006806      22.95512560      26.97924023
Al      31.03913086      24.96577419      27.00885176
Al      33.06857462      27.00038929      26.98044240
Al      35.07364998      29.00908495      26.99404893
Al      37.13359674      31.05126397      27.00750863
Al      39.16736975      33.07827463      26.98711675
Al      41.16310972      35.09527428      26.98307028
Al      43.19850304      37.13458866      26.99318736
Al      45.22709941      39.14139378      26.97901205
Al      29.01516992      20.92700634      29.03663010
Al      31.04278425      22.96180014      29.01218317
Al      33.06707882      24.96561333      29.03478549
Al      35.10285700      26.99464466      29.01957809
Al      37.12102594      29.04370821      29.03120462
Al      39.14017224      31.06059682      29.00016473
Al      41.15454611      33.08127768      29.01375696
Al      43.21136064      35.10040491      29.02358166
Al      45.22750478      37.12248862      29.03621818
Al      31.04708507      20.92945343      31.02823606
Al      33.05817925      22.94237850      31.06354078
Al      35.09090667      24.98408500      31.05595642
Al      37.11651369      27.01613221      31.05404154
Al      39.15698425      29.03074145      31.03528642
Al      41.17262943      31.04957174      31.05058441
Al      43.19630042      33.06029582      31.04207771
Al      45.23766468      35.09275137      31.04717244
Al      33.06115344      20.92209862      33.07390530
Al      35.09725048      22.94209805      33.06611291
Al      37.12644551      24.97602851      33.06913094
Al      39.13556690      26.99527181      33.07116396
Al      41.16110822      29.02179432      33.07892930
Al      43.18916926      31.05641235      33.08497449
Al      45.22946992      33.06168757      33.08383706
Al      35.10057884      20.91393470      35.09604157
Al      37.12494854      22.96134228      35.10230441
Al      39.14494253      24.97346718      35.09509929
Al      41.16667590      26.99774348      35.07535109
Al      43.20983577      29.02042743      35.10311821
Al      45.22931228      31.04671247      35.09849318
Al      37.12385765      20.92024950      37.11345958
Al      39.15489419      22.93948605      37.13135067
Al      41.17676738      24.97748068      37.10486844
Al      43.20254063      27.00775398      37.12963062
Al      45.21578134      29.04391118      37.12625250
Al      39.15669375      20.92022336      39.16729454
Al      41.18613617      22.93276557      39.14912363
Al      43.20326805      24.96759965      39.15995175
Al      45.21337266      26.98936933      39.14341135
Al      41.17773118      20.93890903      41.18409208
Al      43.20164603      22.95172100      41.17499007
Al      20.89745266      22.94796613      22.94928044
Al      22.96399795      24.97746398      22.95214746
Al      24.96602807      26.99786364      22.94895397
Al      27.00792940      29.01398059      22.95411726
Al      29.02065374      31.02808987      22.93703853
Al      31.04910779      33.07173980      22.94923247
Al      33.06240067      35.09117806      22.97526474
Al      35.09411270      37.11864024      22.93356442
Al      37.12041887      39.15263355      22.93562506
Al      39.14330602      41.17295787      22.93811291
Al      41.18104335      43.19258788      22.95932461
Al      22.94362647      22.94295481      24.96200273
Al      24.98540578      24.98242582      24.98257533
Al      26.98292173      26.99700760      24.97163907
Al      29.03018796      29.03124126      24.97284084
Al      31.05790654      31.03115991      24.96312391
Al      33.07088349      33.07436093      24.97972629
Al      35.09718918      35.10084200      24.96082875
Al      37.13155328      37.13960878      24.98707882
Al      39.17131941      39.13604784      24.98160858
Al      41.17228519      41.15588641      24.96856473
Al      24.96468200      22.94941013      27.00233368
Al      27.01781786      24.96960970      27.01826332
Al      29.00531115      26.99612329      27.00155636
Al      31.03507816      29.00701009      26.98357353
Al      33.07502737      31.05536858      27.00894434
Al      35.09959148      33.07959780      27.00899086
Al      37.12473230      35.10700504      26.99891293
Al      39.14283036      37.11060159      26.99923117
Al      41.16818467      39.13566702      26.99299526
Al      43.19191875      41.17554504      26.99356121
Al      27.00001844      22.94855564      29.04034742
Al      29.02178659      24.97837937      29.01222562
Al      31.05713701      27.00036159      29.02206305
Al      33.08421667      29.01106611      29.00370761
Al      35.08172536      31.04782111      29.01029488
Al      37.11288276      33.05928642      29.03611529
Al      39.15403530      35.09796316      29.00599506
Al      41.16332190      37.10594338      29.01915561
Al      43.18646885      39.13102879      29.02016081
Al      29.04271950      22.93943028      31.05246456
Al      31.05091620      24.98042442      31.05262215
Al      33.07339658      26.97741560      31.05237185
Al      35.09422320      29.04789301      31.04502602
Al      37.10864779      31.05218984      31.04691640
Al      39.14064712      33.07862409      31.03767923
Al      41.17197001      35.09732293      31.04776932
Al      43.19054428      37.11282314      31.06058108
Al      31.04925998      22.94429002      33.08092628
Al      33.07353103      24.96967631      33.05844281
Al      35.08496065      26.99930362      33.06736006
Al      37.15018424      29.01536978      33.07112790
Al      39.14155055      31.03838724      33.08905661
Al      41.16504677      33.08004206      33.07549520
Al      43.19788334      35.07895383      33.08041414
Al      33.08621064      22.94574116      35.08941695
Al      35.09250507      24.95661560      35.10200620
Al      37.12633227      26.99709885      35.07747151
Al      39.13856974      29.04510720      35.09529087
Al      41.16579806      31.05117495      35.10594342
Al      43.19468875      33.08669513      35.10385439
Al      35.10558227      22.96107819      37.11671054
Al      37.12201290      24.96727356      37.12557973
Al      39.13769208      26.99074911      37.12314290
Al      41.17513459      29.01227950      37.11423727
Al      43.18295253      31.03146598      37.10396127
Al      37.11370494      22.94175722      39.14627926
Al      39.15473426      24.97142721      39.15053415
Al      41.19018560      26.99606934      39.16166504
Al      43.20187458      29.01938347      39.14957403
Al      39.13596566      22.95112783      41.17749039
Al      41.18676196      24.97219332      41.17727730
Al      43.18344451      26.99593978      41.16463645
Al      41.17758435      22.96186014      43.20341963
Al      20.94109565      24.96044135      24.97591486
Al      22.92196443      27.00573316      24.97121598
Al      24.96447165      29.01826021      24.99113693
Al      27.00900165      31.05531267      24.95921300
Al      29.03364202      33.06238147      24.95986667
Al      31.04381055      35.09820272      24.95058811
Al      33.05212319      37.12320489      24.98843017
Al      35.10080562      39.13600036      24.97279263
Al      37.09703927      41.16064085      24.97166854
Al      39.15132645      43.18449439      24.96157866
Al      22.93850104      24.97560287      26.99135776
Al      24.96431733      27.00636909      27.02133919
Al      26.98890939      29.02366059      26.99359470
Al      29.01977390      31.04860060      26.99511794
Al      31.05616234      33.07107564      26.98934448
Al      33.07736204      35.08708502      27.00427276
Al      35.09157895      37.11217419      26.99401464
Al      37.12052330      39.13881921      27.00826940
Al      39.14299002      41.18788611      27.00804603
Al      41.16799887      43.19901825      26.99138060
Al      24.96950084      24.97234886      29.01214488
Al      26.99906946      26.97797929      29.02418839
Al      29.02555950      29.02625821      29.03518349
Al      31.06211730      31.03973173      29.01590635
Al      33.07578346      33.08202785      29.02605355
Al      35.10193727      35.08660422      29.02862393
Al      37.13155970      37.13848142      29.02748731
Al      39.14044901      39.14619878      29.02467895
Al      41.15932499      41.18001877      29.01771571
Al      27.00452154      24.95699708      31.04752660
Al      29.03777118      26.99593084      31.03642031
Al      31.04249708      29.01530680      31.03846497
Al      33.07598912      31.04299080      31.05972154
Al      35.09213116      33.06552694      31.04742276
Al      37.13036922      35.09198503      31.04399841
Al      39.13263593      37.13527758      31.05694180
Al      41.19064733      39.12978624      31.06208020
Al      29.03846675      24.97394140      33.07440680
Al      31.03778785      26.99285934      33.05476861
Al      33.05215663      29.01005358      33.06579159
Al      35.10478780      31.03440207      33.06929381
Al      37.10895358      33.07362583      33.06934569
Al      39.14380132      35.10077922      33.07027830
Al      41.16387559      37.12126195      33.06498080
Al      31.03659738      24.96578780      35.08929532
Al      33.06646562      27.00257894      35.09596706
Al      35.10529267      29.03009828      35.09814754
Al      37.13037048      31.05295448      35.08171612
Al      39.14728398      33.06056642      35.09438463
Al      41.18184320      35.09788600      35.09604615
Al      43.19837054      37.12406528      35.09290944
Al      33.08833042      24.96414194      37.12044611
Al      35.08591406      26.97799199      37.12807374
Al      37.11493451      28.99656656      37.10434386
Al      39.16602457      31.04232102      37.13960456
Al      41.18022847      33.08587271      37.11922767
Al      43.21387138      35.09908227      37.11830005
Al      35.11214671      24.96883808      39.12372923
Al      37.10504810      26.97633209      39.14612899
Al      39.13654292      29.01097078      39.14631758
Al      41.16390567      31.05527902      39.14703574
Al      37.10854552      24.98315681      41.18008006
Al      39.13653178      26.99319553      41.17145417
Al      41.18059646      29.01505355      41.16962796
Al      39.12919556      24.95633495      43.21108011
Al      41.18057904      27.00860296      43.19285588
Al      20.91663207      26.98856290      27.00140545
Al      22.94391973      29.02261698      26.98715809
Al      24.97890364      31.04171817      27.00813906
Al      26.99357039      33.07779965      26.99851582
Al      29.00655755      35.09470697      26.99331455
Al      31.03706202      37.14319283      26.99789786
Al      33.08464823      39.15720296      26.97719911
Al      35.09818901      41.17453061      26.98655535
Al      37.11236460      43.21024225      26.99426854
Al      39.13000100      45.22942650      26.99886048
Al      22.95330698      26.98446238      29.02447213
Al      24.99227884      29.03223886      29.01813816
Al      26.98937451      31.04169465      29.02566442
Al      29.02321215      33.06459345      29.02426443
Al      31.05339890      35.09672015      29.02451630
Al      33.06243472      37.12895719      29.01989108
Al      35.07960992      39.13446363      29.03103202
Al      37.11141579      41.17076654      29.02998115
Al      39.15711458      43.20581043      29.02159942
Al      24.96574132      27.01852754      31.03641718
Al      26.98418012      29.03130982      31.04246450
Al      29.03084395      31.05126852      31.04592690
Al      31.05438514      33.07727861      31.04984369
Al      33.07898466      35.09952284      31.03463838
Al      35.09625116      37.13295796      31.03731434
Al      37.12563537      39.16865048      31.05561907
Al      39.15823573      41.18750527      31.03570573
Al      27.01409221      26.99472616      33.08728361
Al      29.02020697      29.01547624      33.06410852
Al      31.05677108      31.03095053      33.06974889
Al      33.06170231      33.08325624      33.06656355
Al      35.10097244      35.10127923      33.08949247
Al      37.12586158      37.11880863      33.08070469
Al      39.15045523      39.15893818      33.06173892
Al      29.02901892      27.00504617      35.10470426
Al      31.04178903      29.01454742      35.09791563
Al      33.06347431      31.06619049      35.09144582
Al      35.09911973      33.07614129      35.08932529
Al      37.12575917      35.09669780      35.09835959
Al      39.15301053      37.13293987      35.09444008
Al      41.17250905      39.15422545      35.09375410
Al      31.04723084      27.00003532      37.13066735
Al      33.06862910      29.03036603      37.11241625
Al      35.08270815      31.04107301      37.13239761
Al      37.12134068      33.09207167      37.12380829
Al      39.14949756      35.08695838      37.12580170
Al      41.17956038      37.13118630      37.12086177
Al      33.08068199      26.99085545      39.15062811
Al      35.09927306      29.03905338      39.15351307
Al      37.11301681      31.04203061      39.14500757
Al      39.13575994      33.08044119      39.14199260
Al      41.17401525      35.10112389      39.14711101
Al      35.09754643      27.02608337      41.18499917
Al      37.12824490      29.01700185      41.17076966
Al      39.14883523      31.05523053      41.16207462
Al      37.13496439      27.01371992      43.18676802
Al      39.15878059      29.03121301      43.21069079
Al      39.14621902      26.99127507      45.20048120
Al      20.92343068      29.01804528      29.03840804
Al      22.95488014      31.03553078      29.00446375
Al      24.97863906      33.05587901      29.02710648
Al      27.00502720      35.09611327      29.03354400
Al      29.01255549      37.11032697      29.03361292
Al      31.05174751      39.14582478      29.02669314
Al      33.07538003      41.18444316      29.02967001
Al      35.10272365      43.19005320      29.02059910
Al      37.12359183      45.22679013      29.00928555
Al      22.93889756      29.01739557      31.05499480
Al      24.97143017      31.03816275      31.04971432
Al      27.01859727      33.07250658      31.03705097
Al      29.03186835      35.08986425      31.04095069
Al      31.04006038      37.12927092      31.03046857
Al      33.06630890      39.18060640      31.04140373
Al      35.09303209      41.18012383      31.05420582
Al      37.11309870      43.20139444      31.03254716
Al      24.96992791      29.02404078      33.07180382
Al      26.99623031      31.03705042      33.10592515
Al      29.03179012      33.06345083      33.06656156
Al      31.04032870      35.09995205      33.08973129
Al      33.07611907      37.12466525      33.07674086
Al      35.11096758      39.15019649      33.07517144
Al      37.13113907      41.18690425      33.08232445
Al      26.99093823      29.03851037      35.10177168
Al      29.01700828      31.05151797      35.10873593
Al      31.04498072      33.06698724      35.08819996
Al      33.05669606      35.12845571      35.10865759
Al      35.08541764      37.10584134      35.10148388
Al      37.12023819      39.16613148      35.08513797
Al      39.14372105      41.17905353      35.09845148
Al      29.02421400      29.03709064      37.13718742
Al      31.03513975      31.06580340      37.11141206
Al      33.08588808      33.06803471      37.12925641
Al      35.10817451      35.09578281      37.12074011
Al      37.12635195      37.12017942      37.13063428
Al      39.16353672      39.14404625      37.12064692
Al      31.03221942      29.02038862      39.14840892
Al      33.07446410      31.04405897      39.13729301
Al      35.09436817      33.07331224      39.13827500
Al      37.12036872      35.11406387      39.14840504
Al      39.13675216      37.14228011      39.14113037
Al      33.07625556      29.02362437      41.17028445
Al      35.09311675      31.05084692      41.15751529
Al      37.11490687      33.05154061      41.17642890
Al      39.14855731      35.10090925      41.17437602
Al      35.07419390      29.00915682      43.19691363
Al      37.11502489      31.05970468      43.18262263
Al      37.13387057      29.02056006      45.22455613
Al      20.93346038      31.03814841      31.04575934
Al      22.97557356      33.06130466      31.05671865
Al      24.97584599      35.09982356      31.03778250
Al      27.01572318      37.11244183      31.05414449
Al      29.02890656      39.14579973      31.04464730
Al      31.04940043      41.18233958      31.05190287
Al      33.06159598      43.20360375      31.05164702
Al      35.09313745      45.22978320      31.03097355
Al      22.92612978      31.04545075      33.06101591
Al      24.96031491      33.07229505      33.06980799
Al      26.98506822      35.10217834      33.07213917
Al      29.01607099      37.11282401      33.06645096
Al      31.04683559      39.15972976      33.07393894
Al      33.07878265      41.18973618      33.06577738
Al      35.09132842      43.21863420      33.05490860
Al      24.98598376      31.04059474      35.09464639
Al      27.00289246      33.08859721      35.12057372
Al      29.02627774      35.10908435      35.08382781
Al      31.04507107      37.09745444      35.09534672
Al      33.06705902      39.14782015      35.09361716
Al      35.07850790      41.16650454      35.09741400
Al      37.12108902      43.17046135      35.09769067
Al      26.99895145      31.05233755      37.10050643
Al      29.01974391      33.06605111      37.11336694
Al      31.02911523      35.09221074      37.12388433
Al      33.06165021      37.11874688      37.11962018
Al      35.09793066      39.15178876      37.10737901
Al      37.10932648      41.17870539      37.11595357
Al      29.01689600      31.05097664      39.14579615
Al      31.04163687      33.07385590      39.13769005
Al      33.05988665      35.09989823      39.15940175
Al      35.09432170      37.10510444      39.13009653
Al      37.13121836      39.12600744      39.12946749
Al      31.04818774      31.04307259      41.17437212
Al      33.07776417      33.07425222      41.16901781
Al      35.08261943      35.09637597      41.15936420
Al      37.13599033      37.12985266      41.17447780
Al      33.07535739      31.04750766      43.18866628
Al      35.11060200      33.07053430      43.20485339
Al      37.13317278      35.09285895      43.20401627
Al      35.09238559      31.03784306      45.22293400
Al      20.92600507      33.07943343      33.07129837
Al      22.94310898      35.09737598      33.06851217
Al      24.96835762      37.12842163      33.04049109
Al      26.98855388      39.16010252      33.07236136
Al      29.03264636      41.17474612      33.07927421
Al      31.05625431      43.19934080      33.06666512
Al      33.08192254      45.21724711      33.08700075
Al      22.93599034      33.06714012      35.08815971
Al      24.96051911      35.07825272      35.11952820
Al      26.97928744      37.12805221      35.09693304
Al      29.04875560      39.15121376      35.11087319
Al      31.05385392      41.16090534      35.09314028
Al      33.07789519      43.21427648      35.08974789
Al      24.95762379      33.09199395      37.13092821
Al      27.02346984      35.08679038      37.11256721
Al      29.01517207      37.12311345      37.13989991
Al      31.04456031      39.13993969      37.12383075
Al      33.07742964      41.16185805      37.12805347
Al      35.09035951      43.19954276      37.11359962
Al      26.99398523      33.07574188      39.14456369
Al      29.01884354      35.09452900      39.14533267
Al      31.05924348      37.11903734      39.14178045
Al      33.05423791      39.15194243      39.14637331
Al      35.09483061      41.16198443      39.13282700
Al      29.01943077      33.08686164      41.17289609
Al      31.04771877      35.09329458      41.16039902
Al      33.06248403      37.11967144      41.15960583
Al      35.10730964      39.15143042      41.19282355
Al      31.05231772      33.08142185      43.20737630
Al      33.05937116      35.08387319      43.20179398
Al      35.10222827      37.12844291      43.21193399
Al      33.07380711      33.07021978      45.23462371
Al      20.91558436      35.10969503      35.11220610
Al      22.96310992      37.13403562      35.08386629
Al      24.96969927      39.13781949      35.09984986
Al      26.99754761      41.17796463      35.09568961
Al      29.03409574      43.17813111      35.08784246
Al      31.05224768      45.22234251      35.09145608
Al      22.94793861      35.10194889      37.10884505
Al      24.96997840      37.12676291      37.12895581
Al      26.99835595      39.14871639      37.11563906
Al      29.00122721      41.16147108      37.12245369
Al      31.04076112      43.21117768      37.10350657
Al      25.00197409      35.10591698      39.15055846
Al      27.01318321      37.12600921      39.14015531
Al      29.03354168      39.15855221      39.13818381
Al      31.05683570      41.16937824      39.15912886
Al      26.99461025      35.08852232      41.18312541
Al      29.01620557      37.10910284      41.16635722
Al      31.03501847      39.14371700      41.18270805
Al      29.00374800      35.09015609      43.18932429
Al      31.05378036      37.11456335      43.19373072
Al      31.03735533      35.10590473      45.23037702
Al      20.90657778      37.12404331      37.11715660
Al      22.93773468      39.14486832      37.11436025
Al      24.95785400      41.15498661      37.11462218
Al      26.99997251      43.20341267      37.11232354
Al      29.02095717      45.22348410      37.11051560
Al      22.94976418      37.12244633      39.13429859
Al      24.98674422      39.15173423      39.15321972
Al      26.98691748      41.17994089      39.12968099
Al      29.03149019      43.17248609      39.13952698
Al      24.96003888      37.13932796      41.17047898
Al      27.00022262      39.12946080      41.17221525
Al      29.01441604      41.18776822      41.19562998
Al      27.01200110      37.13495442      43.20416417
Al      29.03600171      39.17468464      43.20341740
Al      29.03066723      37.10872965      45.22665751
Al      20.92165463      39.15336050      39.14450614
Al      22.95252604      41.17696856      39.14577242
Al      24.97979221      43.20641380      39.14415527
Al      27.00857625      45.22274826      39.13371935
Al      22.94460853      39.12370020      41.16972586
Al      24.96465846      41.16770465      41.17881010
Al      27.00799676      43.19728976      41.17813605
Al      24.98565694      39.12266531      43.20585108
Al      27.00330400      41.17556247      43.20360962
Al      27.01218829      39.14405115      45.23816136
Al      20.93652495      41.17554712      41.18008313
Al      22.94442018      43.20489519      41.16785821
Al      22.95299315      41.16925929      43.19802926
