500
Lattice="19.953258659653464 0.0 0.0 0.0 18.91738488296317 0.0 0.0 0.0 26.398229910574628" Properties=species:S:1:pos:R:3 id=sample_001657 pbc="F F F"
Au      -0.00887231      -0.00293620      -0.00797150
Au      -0.02599794       1.90772721       2.63193578
Au       1.99838276      -0.00798857       2.65229648
Au       1.99563567       1.90551323       0.01264806
Au      -0.00233808      -0.00174282       5.27178509
Au       0.00618717       1.89643035       7.92313893
Au       1.99357663       0.01124168       7.91686045
Au       1.99889863       1.90369220       5.28912773
Au      -0.01085825       0.00243143      10.57076538
Au       0.00682111       1.87297696      13.20487411
Au       1.98767177      -0.00260898      13.20538772
Au       1.98800316       1.91047896      10.57367938
Au      -0.00903421      -0.00470374      15.85004538
Au       0.00312299       1.89932010      18.47495758
Au       1.99252568      -0.01692419      18.49735197
Au       2.00855322       1.88473897      15.86109212
Au       0.01269245      -0.00961550      21.10320675
Au       0.00561331       1.88856454      23.75895408
Au       2.00749335       0.01689159      23.74977469
Au       2.00047824       1.89495120      21.11638971
Au       0.00244589       3.78446038      -0.00287764
Au      -0.02511886       5.67814780       2.64178459
Au       1.99748126       3.78046399       2.62554108
Au       2.00596995       5.67394787       0.00970429
Au      -0.00878054       3.78655202       5.27119588
Au      -0.01060223       5.67559523       7.92847381
Au       1.99953704       3.78997944       7.90878276
Au       1.99738641       5.65209080       5.28292810
Au      -0.00443713       3.77550531      10.55412932
Au       0.01033931       5.67634840      13.19493438
Au       2.01041073       3.79702119      13.19644379
Au       2.00084244       5.66770427      10.56728934
Au      -0.00557200       3.79714005      15.84389412
Au      -0.00934795       5.67633575      18.45836121
Au       2.00559695       3.80100371      18.46569524
Au       1.99545152       5.67787327      15.84351548
Au      -0.00435344       3.78879364      21.11083130
Au       0.00815425       5.65731188      23.76771915
Au       1.99678885       3.78285118      23.75023284
Au       1.98799171       5.66962864      21.13632565
Au       0.01732912       7.56629689       0.00114798
Au       0.00030299       9.46313182       2.64424111
Au       2.00316128       7.56660787       2.63754599
Au       1.97754274       9.45347508       0.01750615
Au      -0.00242094       7.56035596       5.28239233
Au       0.00248062       9.45134321       7.91366388
Au       2.00279011       7.57755158       7.91708059
Au       2.00690991       9.45230234       5.27371861
Au       0.00971726       7.56658324      10.55670349
Au       0.00259488       9.44780770      13.19739183
Au       2.00422011       7.57727547      13.19069097
Au       1.97239861       9.47592233      10.55696353
Au       0.01621735       7.56389315      15.82180785
Au       0.01927406       9.47013534      18.47942038
Au       1.99202408       7.55864457      18.47614890
Au       2.00546180       9.46234303      15.85572294
Au       0.02259172       7.57498182      21.13061072
Au      -0.00610774       9.45956325      23.76188181
Au       2.00041092       7.56622307      23.74128026
Au       1.98182221       9.45403624      21.12799809
Au       0.00677032      11.36456803       0.01491700
Au      -0.00023340      13.22315970       2.63984033
Au       2.00351949      11.34594708       2.65861047
Au       1.98579998      13.24176831       0.01323310
Au       0.01055772      11.35982218       5.27414525
Au      -0.00964883      13.25346015       7.90474025
Au       2.00362329      11.35035226       7.94318906
Au       1.99941302      13.22677487       5.27437414
Au       0.00629338      11.36220009      10.58524304
Au       0.00784338      13.21110696      13.21683502
Au       1.97352259      11.34377402      13.19166106
Au       1.97431660      13.22662091      10.56396220
Au       0.01575300      11.35621948      15.83727132
Au       0.00442883      13.24922302      18.49152287
Au       1.97556306      11.36274860      18.46722913
Au       1.98464191      13.24147190      15.83421593
Au      -0.01103404      11.37258977      21.10631209
Au      -0.00135097      13.23139519      23.76102784
Au       1.99053542      11.35244437      23.77346459
Au       1.98838061      13.22921489      21.12380024
Au      -0.00050823      15.13820041      -0.01209332
Au      -0.00106965      17.03877524       2.64159548
Au       1.98022668      15.14581061       2.63999524
Au       2.00038592      17.04324044      -0.00027632
Au       0.00522291      15.13914792       5.26893917
Au      -0.00310112      17.01748190       7.91596278
Au       2.01972930      15.12745231       7.92577706
Au       2.02644670      17.02907681       5.27595578
Au      -0.00401640      15.13888010      10.56300977
Au       0.00416619      17.02171848      13.19821415
Au       1.99951606      15.13695389      13.19732183
Au       1.98946973      17.03198905      10.54236514
Au      -0.00475755      15.12351505      15.82281927
Au       0.02675440      17.01496824      18.47163318
Au       1.99899428      15.12732057      18.47805448
Au       1.99731551      17.02248926      15.82593226
Au       0.00903467      15.14128391      21.12942508
Au       0.00065775      17.02754648      23.75084624
Au       1.99949410      15.14965919      23.75852184
Au       2.01269027      17.05820827      21.12192457
Au       4.00264809       0.01594987      -0.01519557
Au       3.98248207       1.89085134       2.62672746
Au       5.97693883      -0.01461801       2.63916187
Au       5.98729469       1.89106242      -0.00891987
Au       3.99457557       0.02170516       5.28425992
Au       3.99122620       1.91132888       7.90930454
Au       5.97694834       0.00899841       7.91710627
Au       5.99909485       1.89352854       5.30110247
Au       3.97422120       0.00399255      10.59144201
Au       4.01153624       1.89046052      13.19504370
Au       5.97385488       0.01228797      13.19307651
Au       5.96686117       1.88821632      10.56676956
Au       3.98331372       0.01187776      15.85621819
Au       3.98442911       1.88204236      18.49035657
Au       5.97553625       0.00172483      18.48373766
Au       5.98309899       1.88370354      15.85460681
Au       4.01591815      -0.00410566      21.12984675
Au       3.98002558       1.86507936      23.75386429
Au       5.98815784       0.00564857      23.77548691
Au       5.98664735       1.89736826      21.13780085
Au       4.00576177       3.79293305      -0.00098912
Au       3.99084614       5.67707633       2.63724796
Au       5.99740688       3.79390874       2.64325560
Au       5.96817984       5.67875591      -0.01414474
Au       3.98485205       3.78527984       5.27127324
Au       3.98810022       5.65733989       7.92135395
Au       5.98085050       3.78839931       7.92173573
Au       5.99599261       5.68309007       5.28058160
Au       3.99161044       3.77136505      10.56322995
Au       3.98953657       5.67087435      13.20575647
Au       5.97412149       3.79818617      13.20325112
Au       5.97333207       5.65951647      10.54637084
Au       3.98929434       3.79922697      15.83528900
Au       3.98645448       5.66999654      18.49310816
Au       5.96664991       3.77605800      18.47955924
Au       6.01378337       5.66876079      15.84113964
Au       3.99335897       3.80203536      21.11108470
Au       4.00582828       5.67088497      23.79048803
Au       5.96666990       3.78749397      23.75272159
Au       6.00076857       5.67950651      21.12065815
Au       3.98127328       7.55683780      -0.00064613
Au       3.99942618       9.45038598       2.65202716
Au       5.97976522       7.56392560       2.63806102
Au       5.98677557       9.45384746       0.00761609
Au       3.98513522       7.58080213       5.25526202
Au       3.99934827       9.45024774       7.92301759
Au       5.98055150       7.56447209       7.92279275
Au       5.98606660       9.47282979       5.31338910
Au       3.99099637       7.56371446      10.57239462
Au       3.98153996       9.46992174      13.19024962
Au       5.98160292       7.56872540      13.20390407
Au       5.99913554       9.46023940      10.55267501
Au       3.98072523       7.56336385      15.84585392
Au       3.98477943       9.47130902      18.49043622
Au       5.99886045       7.57274714      18.48490967
Au       5.98765072       9.45254320      15.84144994
Au       3.98701101       7.55637155      21.12143087
Au       3.98111395       9.46289096      23.74854510
Au       5.97758500       7.55894843      23.76916490
Au       5.98254363       9.45291739      21.11691166
Au       3.99328514      11.35731424      -0.00793702
Au       4.00063261      13.24586518       2.65282208
Au       5.98567110      11.35526782       2.62666361
Au       5.98203519      13.21753863       0.00428211
Au       3.98477466      11.35488311       5.27531912
Au       3.97130942      13.24171453       7.92483778
Au       5.98352970      11.33612672       7.90649801
Au       5.97718244      13.25068551       5.28882649
Au       3.99127526      11.35089301      10.56458417
Au       3.98304468      13.24173866      13.20123759
Au       5.97112901      11.33686863      13.20198962
Au       5.99479824      13.24882701      10.57671307
Au       3.99671110      11.34124843      15.84137582
Au       4.00384062      13.25726647      18.48012172
Au       5.98582645      11.35043891      18.46513303
Au       5.99979976      13.23420923      15.83759938
Au       3.99398271      11.34206564      21.10780690
Au       4.00773278      13.24559200      23.77760568
Au       5.97542688      11.35766934      23.76453324
Au       5.97944223      13.23078939      21.12056673
Au       3.96839878      15.13646947      -0.00069320
Au       3.98895460      17.02771608       2.64211738
Au       5.98885294      15.13861470       2.64164589
Au       5.99640443      17.02364388      -0.00708581
Au       4.00533760      15.13127287       5.28702803
Au       3.99123031      17.02282160       7.90206022
Au       5.99602307      15.13708803       7.92579736
Au       5.98358732      17.04284099       5.27563192
Au       3.98791658      15.14007473      10.55996067
Au       3.99517368      17.02536013      13.20442503
Au       5.98910032      15.12069651      13.19645826
Au       5.97678791      17.03053184      10.55501246
Au       3.98549070      15.12931308      15.84763858
Au       4.00099631      17.03034154      18.48695878
Au       5.98450169      15.12543163      18.47814895
Au       5.97665094      17.01102584      15.83616150
Au       4.01096886      15.12786802      21.10346120
Au       4.00484409      17.01742692      23.76469827
Au       5.97587227      15.12626674      23.74966670
Au       5.97940678      17.01525413      21.09957006
Au       7.97030458       0.00377331       0.00343404
Au       7.98856932       1.89356248       2.63068594
Au       9.96373291       0.00843706       2.63009689
Au       9.98545639       1.87947865       0.00408630
Au       7.98348897      -0.02666902       5.29895632
Au       8.00034756       1.89730738       7.91586381
Au       9.97542238      -0.02070387       7.90794219
Au       9.95900716       1.90860985       5.27760499
Au       7.98328006      -0.00308430      10.56578893
Au       7.98080083       1.88212208      13.18712528
Au       9.97874642       0.00411495      13.20532259
Au       9.96881867       1.89445269      10.56218451
Au       7.98820324      -0.00555354      15.84094497
Au       7.97567684       1.89171589      18.48395520
Au       9.97435092      -0.00460949      18.48841905
Au       9.97361025       1.90063459      15.84875066
Au       7.99231450      -0.01021115      21.11034774
Au       7.98601141       1.89232903      23.74740649
Au       9.98390867       0.01139391      23.76442771
Au       9.96668776       1.87972250      21.11640865
Au       7.98016035       3.79510174       0.00071914
Au       7.97771443       5.67985823       2.61834417
Au       9.95932678       3.78781096       2.66162400
Au       9.96958193       5.68330881      -0.01481730
Au       7.97547455       3.76927391       5.29598544
Au       7.95772478       5.66459595       7.91399568
Au       9.97207183       3.79439383       7.94085446
Au       9.98119192       5.66982249       5.29979282
Au       7.99260046       3.78009914      10.55676713
Au       7.98226602       5.66852476      13.19107489
Au       9.96232201       3.79612908      13.20493060
Au       9.96951379       5.68203816      10.56285594
Au       7.97782446       3.80274663      15.83386188
Au       7.96391674       5.66981657      18.48949466
Au       9.99789814       3.78645664      18.48926179
Au       9.96589090       5.68133377      15.84951578
Au       7.98175397       3.76933593      21.12493547
Au       7.96690444       5.68343107      23.75969640
Au       9.99726182       3.76782021      23.76548883
Au       9.96745990       5.68049004      21.11164521
Au       7.99251289       7.55712177      -0.00479870
Au       7.98672262       9.45041537       2.63254741
Au       9.99056442       7.58107267       2.63828240
Au       9.96618692       9.48371239       0.01064193
Au       7.98266795       7.56867405       5.26646720
Au       7.97187617       9.46229634       7.89664325
Au       9.98777868       7.56499529       7.92746316
Au       9.95893932       9.45839654       5.27118872
Au       7.97579697       7.56740042      10.54807489
Au       7.98108132       9.46609391      13.18921847
Au       9.97420723       7.56032596      13.20644298
Au       9.96044678       9.48702421      10.54991937
Au       7.97948084       7.55495122      15.83719614
Au       7.97004446       9.45468490      18.47890722
Au       9.97095597       7.55157984      18.47484636
Au       9.98143599       9.45603055      15.84663895
Au       7.97844901       7.56062364      21.11267383
Au       7.98325929       9.44408215      23.75094839
Au       9.98941321       7.56067950      23.75273316
Au       9.97759651       9.46989303      21.12528136
Au       7.96789968      11.36287449      -0.00717052
Au       7.99786102      13.24227902       2.64858680
Au       9.97752463      11.34389448       2.63566855
Au       9.98958348      13.25744657       0.00721591
Au       7.98954152      11.35987322       5.27656334
Au       7.98470480      13.24924331       7.91868828
Au       9.98030359      11.34688065       7.89501331
Au       9.97191014      13.25208962       5.28246747
Au       7.98820003      11.35887749      10.56554004
Au       7.98960294      13.23287898      13.17943119
Au       9.98902531      11.36973057      13.20633079
Au       9.97071991      13.23835179      10.53903944
Au       7.95674260      11.34768533      15.85401008
Au       7.98697408      13.24831345      18.47669903
Au       9.98171982      11.33171088      18.47930765
Au       9.97172793      13.24260073      15.83952073
Au       7.97750676      11.34272513      21.11154956
Au       7.97393661      13.24344344      23.76370994
Au       9.98245426      11.35403389      23.74595573
Au       9.97798057      13.25338041      21.11636331
Au       7.99005210      15.13945545       0.00648563
Au       7.98682211      17.04182976       2.65805739
Au       9.99955075      15.13443436       2.63883203
Au       9.98032386      17.03347680      -0.00245041
Au       7.96058562      15.14126273       5.27786911
Au       7.99275337      17.03708007       7.92874937
Au       9.97466018      15.13318381       7.92279914
Au       9.98418617      17.01510647       5.27667979
Au       7.97166670      15.12931696      10.54296672
Au       8.00566623      17.02311996      13.19468579
Au       9.95377931      15.13310252      13.20220217
Au       9.96299390      17.02679419      10.55486864
Au       7.97731262      15.14081768      15.83865210
Au       7.97904581      17.03860671      18.47932768
Au       9.97959754      15.12664636      18.46707667
Au       9.98381431      17.01715407      15.83970358
Au       7.99933653      15.12896360      21.11989427
Au       7.96482528      17.03029227      23.75914318
Au       9.97177861      15.12625860      23.77678236
Au       9.98463596      17.00643337      21.13580520
Au      11.99716164      -0.01296917       0.00859943
Au      11.97681621       1.88631405       2.65270739
Au      13.97570620      -0.00648724       2.63932076
Au      13.95666104       1.89259370       0.00840109
Au      11.96210446       0.01204874       5.27990055
Au      11.97465210       1.90084149       7.92643452
Au      13.97148991       0.00432029       7.93039948
Au      13.97697162       1.88012974       5.26915954
Au      11.96684028      -0.00515993      10.56071855
Au      11.96682427       1.89412913      13.20465812
Au      13.97443965       0.00984153      13.21200694
Au      13.96368324       1.88223466      10.56867270
Au      11.95637687      -0.00638318      15.81858190
Au      11.95933932       1.90482068      18.46734211
Au      13.96142766       0.00990686      18.47539071
Au      13.94681551       1.87754368      15.84635391
Au      11.96799047       0.00571358      21.11569698
Au      11.97777589       1.87910342      23.76712235
Au      13.96229745      -0.00115946      23.74906193
Au      13.96256025       1.89216350      21.11568614
Au      11.95879275       3.78143118       0.01031706
Au      11.96107728       5.67796240       2.64164927
Au      13.97082226       3.78955809       2.63001659
Au      13.97596814       5.67494669       0.00758460
Au      11.98431819       3.79441364       5.27031300
Au      11.97671263       5.67563169       7.91367444
Au      13.98315372       3.77063425       7.90151337
Au      13.97081956       5.69767770       5.27285060
Au      11.95810119       3.78362412      10.55133630
Au      11.98122493       5.67097471      13.19991637
Au      13.97906242       3.77670898      13.18619205
Au      13.99110767       5.66235279      10.55761756
Au      11.97521557       3.78677197      15.82867844
Au      11.97188721       5.67892421      18.48075492
Au      13.95788173       3.79518066      18.46983045
Au      13.97061462       5.67395864      15.81946295
Au      11.96623482       3.78317156      21.11132163
Au      11.97777667       5.68989998      23.75455237
Au      13.97119860       3.77397571      23.76561055
Au      13.96491849       5.69091371      21.11212745
Au      11.97291425       7.56281426       0.00434287
Au      11.98732735       9.46161271       2.64794351
Au      13.96136042       7.57051183       2.65433699
Au      13.96202130       9.45605194       0.00617596
Au      11.96087264       7.56424088       5.28315304
Au      11.97231202       9.46191098       7.91552112
Au      13.96196755       7.56059139       7.91089496
Au      13.97335112       9.45538590       5.26883026
Au      11.96594975       7.56519034      10.56691268
Au      11.96723965       9.45561150      13.20306043
Au      13.96739347       7.55990235      13.18251523
Au      13.97000320       9.45835523      10.53810993
Au      11.97393409       7.57993890      15.84325024
Au      11.96372205       9.45598037      18.46277510
Au      13.97842295       7.55689547      18.46135520
Au      13.96823762       9.46527773      15.83616451
Au      11.98285007       7.58205665      21.11206664
Au      11.99139217       9.44700518      23.74783478
Au      13.95691096       7.57838437      23.77430506
Au      13.96149750       9.47427844      21.10453718
Au      11.96558143      11.34448519      -0.01018453
Au      11.97078705      13.25227714       2.63488036
Au      13.95092580      11.36057798       2.64117510
Au      13.96384172      13.26249640       0.00021641
Au      11.99769544      11.36274630       5.29564956
Au      11.95884695      13.23719410       7.91128907
Au      13.96195252      11.36130849       7.91356064
Au      13.95899128      13.23197417       5.28285580
Au      11.96470726      11.34134640      10.57071096
Au      11.96569782      13.23978331      13.20717376
Au      13.96530864      11.34585367      13.19692739
Au      13.96098809      13.25073296      10.56873107
Au      11.97068967      11.33174145      15.85099380
Au      11.97422195      13.24257573      18.47682341
Au      13.97308979      11.35837468      18.46651022
Au      13.96626574      13.22475794      15.83976344
Au      11.96347968      11.34073252      21.11029751
Au      11.96697628      13.26204774      23.76669848
Au      13.96811060      11.33795196      23.74470078
Au      13.96366781      13.23852798      21.12332633
Au      11.95853596      15.13940988       0.02315426
Au      11.98059568      17.04333633       2.65431406
Au      13.96019326      15.13259338       2.63315007
Au      13.95530304      17.01616247      -0.00857378
Au      11.97764816      15.13010277       5.27850713
Au      11.96319347      17.01766728       7.91963723
Au      13.97799202      15.12640625       7.92556340
Au      13.97031013      17.02250916       5.27182742
Au      11.97807873      15.13089221      10.54520411
Au      11.96208384      17.02222018      13.20987746
Au      13.96220586      15.13830312      13.19364232
Au      13.97298146      17.03715768      10.55297239
Au      11.97607009      15.13701563      15.86181419
Au      11.97657435      17.02849989      18.47993035
Au      13.96106305      15.13961413      18.48496241
Au      13.97672611      17.02051970      15.84748807
Au      11.94820707      15.13916224      21.13227360
Au      11.94942365      17.00429304      23.76607947
Au      13.96749709      15.15480269      23.74669670
Au      13.95600714      17.04178289      21.11291680
Au      15.94756212       0.00032271       0.01955110
Au      15.96277044       1.90342497       2.64972483
Au      17.93913953       0.01476230       2.62941792
Au      17.95314102       1.88498412      -0.01362877
Au      15.96449017       0.00997717       5.26972474
Au      15.97010697       1.88127602       7.91977901
Au      17.95212617       0.01924268       7.92795430
Au      17.96125499       1.88653311       5.28550599
Au      15.95848881      -0.00278176      10.57008583
Au      15.98496552       1.89570176      13.21350104
Au      17.95880656      -0.00480950      13.19580118
Au      17.96833167       1.89277192      10.57200576
Au      15.96244707       0.00975409      15.84831510
Au      15.95198466       1.88662341      18.47089316
Au      17.95906366      -0.00359398      18.46902964
Au      17.94415604       1.88867312      15.81608324
Au      15.96278773      -0.00978649      21.12885241
Au      15.96396091       1.88457655      23.75903827
Au      17.96440088       0.00807271      23.75792964
Au      17.97881183       1.89270260      21.12423839
Au      15.96539597       3.79411025      -0.01164428
Au      15.95442571       5.67170905       2.64959814
Au      17.95808325       3.78656002       2.63046700
Au      17.96739551       5.67359175      -0.01101110
Au      15.96005770       3.79561052       5.30368406
Au      15.97632426       5.65298556       7.91993051
Au      17.95521115       3.77316446       7.91104485
Au      17.94029131       5.66435615       5.28871744
Au      15.95536928       3.78707221      10.58134508
Au      15.96955777       5.68410551      13.21638820
Au      17.95257213       3.78919370      13.21407286
Au      17.95143290       5.67513680      10.55891215
Au      15.96776385       3.78875564      15.82207648
Au      15.97074942       5.67619206      18.48850464
Au      17.94514832       3.80022961      18.46608169
Au      17.96806328       5.67743226      15.84169777
Au      15.96081989       3.79496172      21.11068056
Au      15.95526957       5.67242053      23.75067351
Au      17.95800563       3.78765703      23.75665406
Au      17.95013852       5.67290832      21.13197181
Au      15.96476201       7.56713078      -0.00898270
Au      15.95700014       9.45904406       2.63119078
Au      17.95563041       7.56148872       2.62777526
Au      17.96553482       9.46166290       0.00324886
Au      15.95360856       7.57206204       5.27770931
Au      15.96632387       9.45866779       7.92196194
Au      17.95404699       7.56644242       7.91551252
Au      17.94278857       9.46227548       5.28844122
Au      15.96568493       7.54870022      10.56935796
Au      15.95819868       9.46151516      13.20518591
Au      17.94315102       7.57557961      13.21542782
Au      17.95898838       9.44789915      10.54928316
Au      15.98667948       7.57076498      15.85551475
Au      15.96295064       9.44667991      18.48700810
Au      17.95416926       7.58410693      18.45769197
Au      17.94872616       9.45327162      15.83892352
Au      15.96945255       7.57262254      21.12572559
Au      15.96329117       9.45371556      23.76573804
Au      17.96147610       7.56454598      23.76586926
Au      17.93692444       9.45982896      21.12134945
Au      15.95281487      11.34767653       0.00070824
Au      15.96014914      13.24367132       2.63423055
Au      17.95678711      11.34971568       2.66032563
Au      17.97194986      13.24173130       0.00969033
Au      15.96876275      11.36847891       5.28038333
Au      15.97592155      13.21813036       7.93337689
Au      17.94891084      11.34853296       7.91312241
Au      17.96145196      13.23921731       5.27239270
Au      15.96055972      11.34160305      10.57454108
Au      15.94890920      13.25263845      13.21369445
Au      17.96726533      11.35564689      13.19619769
Au      17.96721391      13.22476906      10.56342121
Au      15.94874538      11.34428281      15.83101405
Au      15.96669537      13.25489453      18.46908292
Au      17.96136705      11.36600789      18.48960702
Au      17.93165316      13.24532792      15.85312002
Au      15.94789461      11.35342881      21.11475495
Au      15.96253696      13.23017569      23.75733148
Au      17.95435557      11.33228127      23.74829398
Au      17.96593056      13.25504164      21.11576816
Au      15.96578938      15.13412982      -0.00495892
Au      15.96893996      17.02674057       2.64556831
Au      17.94710646      15.12727922       2.63235937
Au      17.95632735      17.03323050      -0.00230079
Au      15.96118002      15.13654677       5.26340310
Au      15.96593833      17.02088809       7.90656377
Au      17.93576233      15.14056861       7.91569465
Au      17.95564653      17.01116979       5.28804542
Au      15.97500267      15.13656134      10.55696889
Au      15.95975783      17.02163835      13.20973544
Au      17.97431209      15.13917675      13.18251688
Au      17.95719916      17.01017018      10.54744122
Au      15.95894700      15.11523302      15.86444539
Au      15.96712428      17.01980955      18.48680563
Au      17.97640700      15.13773903      18.48691623
Au      17.97426058      17.03122595      15.83966880
Au      15.96800079      15.12829829      21.14124811
Au      15.96818026      17.03282764      23.76540202
Au      17.95089905      15.13721481      23.74268017
Au      17.94325899      17.01596437      21.11405089
