7
Lattice="74.55475242147702 0.0 0.0 0.0 74.55475242147702 0.0 0.0 0.0 74.55475242147702" Properties=species:S:1:pos:R:3:initial_magmoms:R:1 id=sample_001316 pbc="T T T"
Fe      36.67591834      36.64085230      36.65214911       2.30000000
Fe      38.11409052      38.09610678      35.19392588       2.30000000
Fe      38.13628677      35.22190108      38.10347452       2.30000000
Fe      39.52704329      36.65152553      36.65396693       2.30000000
Fe      35.22514502      38.09727455      38.10207329       2.30000000
Fe      36.58111039      39.53483117      36.66487425       2.30000000
Fe      36.69419915      36.64744185      39.55286060       2.30000000
