108
Lattice="14.39893997469568 0.0 0.0 0.0 11.4474943247665 0.0 0.0 0.0 12.664853838238614" Properties=species:S:1:pos:R:3 id=sample_000238 pbc="F F F"
Al      -0.00277918       0.00387321      -0.01236621
Al       0.00341120       1.90554017       2.11985291
Al       2.40567183       0.01487409       2.09594028
Al       2.41176554       1.90623469      -0.01200377
Al       0.00182037      -0.00178241       4.21142645
Al       0.00124153       1.89743759       6.31982283
Al       2.39420715       0.00853136       6.33495552
Al       2.40558507       1.90927507       4.22749779
Al       0.00368684      -0.00928354       8.42113208
Al       0.00981815       1.91073122      10.56251986
Al       2.40541910      -0.02384856      10.57211025
Al       2.37624898       1.90372970       8.43325841
Al      -0.00799693       3.81554966      -0.01077676
Al      -0.01660685       5.72544036       2.10877694
Al       2.37367958       3.83756800       2.10673940
Al       2.40299164       5.72738696       0.00996581
Al      -0.01559289       3.80426349       4.19595776
Al      -0.01117453       5.71293806       6.34303758
Al       2.39891105       3.82526253       6.32890240
Al       2.40639596       5.73921873       4.23244431
Al       0.00503238       3.80571485       8.43013271
Al       0.01092112       5.73109593      10.53933628
Al       2.38767858       3.79376678      10.56508674
Al       2.39137087       5.73538975       8.44635970
Al      -0.00301264       7.65288199      -0.01013051
Al      -0.00435766       9.55845071       2.11872447
Al       2.41957097       7.61989945       2.10892917
Al       2.41330182       9.53524691      -0.00355033
Al       0.00482200       7.63629538       4.23259164
Al      -0.00118635       9.51889244       6.34642826
Al       2.40106512       7.61046166       6.33247502
Al       2.39671713       9.52301480       4.22945798
Al      -0.00077717       7.62262351       8.44215486
Al      -0.00661058       9.54483204      10.55052635
Al       2.39471926       7.62576882      10.56664603
Al       2.41129454       9.53912866       8.44300576
Al       4.81016531       0.00998945       0.00587092
Al       4.79301583       1.90859115       2.11444014
Al       7.16971629       0.01049041       2.10922117
Al       7.20289128       1.91360355       0.00893386
Al       4.77355083      -0.00152769       4.22125444
Al       4.79872077       1.90305368       6.32806172
Al       7.19196289      -0.01791305       6.33640993
Al       7.20883442       1.90166785       4.22764024
Al       4.81039515      -0.00997905       8.44695033
Al       4.79857841       1.89890238      10.55491482
Al       7.20063952      -0.00896611      10.55023385
Al       7.17610799       1.91525986       8.44049458
Al       4.79743882       3.81336085       0.00138529
Al       4.80603670       5.72737205       2.10724837
Al       7.20328113       3.80995553       2.12380810
Al       7.21066599       5.72122260       0.02038800
Al       4.79885211       3.80266484       4.21160901
Al       4.79875488       5.71993900       6.32830883
Al       7.20673804       3.80810287       6.33326901
Al       7.19498108       5.71253388       4.21122514
Al       4.78921176       3.81810853       8.43740972
Al       4.80811428       5.73115527      10.55953015
Al       7.18823117       3.81157639      10.55168366
Al       7.18236697       5.72908823       8.44390965
Al       4.81590948       7.63257802      -0.01293470
Al       4.80775699       9.52841368       2.10368154
Al       7.20333249       7.63024454       2.11443287
Al       7.20066639       9.54549424      -0.00508781
Al       4.81169667       7.62448454       4.21829723
Al       4.78011168       9.54540646       6.35150582
Al       7.20585516       7.62971511       6.33405056
Al       7.18891754       9.55088263       4.21636567
Al       4.78910299       7.63643246       8.43668004
Al       4.79552640       9.52928787      10.55980257
Al       7.18771729       7.63414553      10.55613889
Al       7.20892391       9.51099458       8.43873379
Al       9.60332352       0.00492411       0.01553648
Al       9.60537826       1.91749483       2.11038823
Al      12.00407364       0.00440884       2.10256036
Al      11.99293125       1.90838080      -0.01164306
Al       9.61609487      -0.00458324       4.21777230
Al       9.59471908       1.91280442       6.33426351
Al      12.00318583       0.00493066       6.32936834
Al      11.97825625       1.92560694       4.22032605
Al       9.58411603       0.00034050       8.45327019
Al       9.59578105       1.91042230      10.55781152
Al      11.99654660      -0.01700005      10.54383749
Al      12.00129128       1.91672902       8.43830865
Al       9.60211627       3.82486960      -0.00195398
Al       9.59491336       5.72189596       2.11217690
Al      12.01035099       3.80089695       2.11323272
Al      12.00507409       5.71381492       0.00243499
Al       9.60746396       3.81009200       4.21335316
Al       9.60619992       5.71605013       6.34617275
Al      11.98439546       3.81546949       6.32992391
Al      11.99452211       5.73233616       4.20272014
Al       9.61565228       3.80280997       8.45678586
Al       9.60419689       5.72568101      10.53369052
Al      11.99100067       3.81447415      10.55114165
Al      11.98170230       5.70762896       8.44383673
Al       9.60020282       7.63377392       0.00259164
Al       9.58641837       9.53872922       2.12080360
Al      12.00897357       7.64223591       2.11454154
Al      12.01570421       9.52573709      -0.00924365
Al       9.58693018       7.61591961       4.23024100
Al       9.59574052       9.53717477       6.34841839
Al      12.00934543       7.61977028       6.32677540
Al      12.00217183       9.52182242       4.22461248
Al       9.61477028       7.64384900       8.45825873
Al       9.60712365       9.56037126      10.54686993
Al      12.00975358       7.63826052      10.55305344
Al      12.00617875       9.55824622       8.45377416
