488
Lattice="67.97883836860073 0.0 0.0 0.0 67.97883836860073 0.0 0.0 0.0 67.97883836860073" Properties=species:S:1:pos:R:3 id=sample_001965 pbc="T T T"
Al      21.46229250      21.44121644      21.44361336
Al      23.45307972      23.47924056      21.45251412
Al      25.49780849      25.49398322      21.42120018
Al      27.52097338      27.51854374      21.44053748
Al      29.53871504      29.55660582      21.45852411
Al      31.57681153      31.56629239      21.45060166
Al      33.59757137      33.59254485      21.46650427
Al      35.61933364      35.61802475      21.44929694
Al      37.65710430      37.64062988      21.46015936
Al      39.67115312      39.66987305      21.45776645
Al      41.69789410      41.69858060      21.46186013
Al      43.70772209      43.73023136      21.45284605
Al      23.47336642      21.44902192      23.47460816
Al      25.48980093      23.47594116      23.46240938
Al      27.52607369      25.49479790      23.48459630
Al      29.55206249      27.51838886      23.48611729
Al      31.57107090      29.55637042      23.46685323
Al      33.60396226      31.57322301      23.46498964
Al      35.62281620      33.58586695      23.47164577
Al      37.64730249      35.64421001      23.48236128
Al      39.68285564      37.64705774      23.47635066
Al      41.71767454      39.68275734      23.47524440
Al      43.71198022      41.69504523      23.47034703
Al      25.50350692      21.43961284      25.50550989
Al      27.51906221      23.47289437      25.47760444
Al      29.56203893      25.51445287      25.50413074
Al      31.57827195      27.53054821      25.50083287
Al      33.59594698      29.55242355      25.49409946
Al      35.63524843      31.56845413      25.51451814
Al      37.66473531      33.59593771      25.51629121
Al      39.68199756      35.61275389      25.49401339
Al      41.71180647      37.64149958      25.50056425
Al      43.73338297      39.67464384      25.49900347
Al      45.72750709      41.68847783      25.49173802
Al      27.53192094      21.46741782      27.51811129
Al      29.55839877      23.48317417      27.52326501
Al      31.57670523      25.50600215      27.53346188
Al      33.58928570      27.52683668      27.52657368
Al      35.63426214      29.53587801      27.50576127
Al      37.66714210      31.58720948      27.54282601
Al      39.67807941      33.61186501      27.53351202
Al      41.72543554      35.63876740      27.53207038
Al      43.74383157      37.62773837      27.52714020
Al      45.76785903      39.67713608      27.53266842
Al      29.55105832      21.44889811      29.53961539
Al      31.57318134      23.48743688      29.55892042
Al      33.61690937      25.49566620      29.55202732
Al      35.60273760      27.51213963      29.54122240
Al      37.65448196      29.55452298      29.53980864
Al      39.66210774      31.58936620      29.57182506
Al      41.70343014      33.59270890      29.53922900
Al      43.72583801      35.62859690      29.54000057
Al      45.75666820      37.66560013      29.55491202
Al      31.58832795      21.46025346      31.56837004
Al      33.59974166      23.45951778      31.57709147
Al      35.62449249      25.50304794      31.57473656
Al      37.65423932      27.51283391      31.59423619
Al      39.67462324      29.53764098      31.57455959
Al      41.69322798      31.57477925      31.57502797
Al      43.72779887      33.60958846      31.59032282
Al      45.76038870      35.62166738      31.56085621
Al      33.58314248      21.43954106      33.60994648
Al      35.62807789      23.48971234      33.60749654
Al      37.64554788      25.50565990      33.59221243
Al      39.68250792      27.54615086      33.60753217
Al      41.70570983      29.54464787      33.60822943
Al      43.72861742      31.56723505      33.59138906
Al      45.74552519      33.59659071      33.61060827
Al      35.64376213      21.44886866      35.64274281
Al      37.63823335      23.47150930      35.62725434
Al      39.68419897      25.49016700      35.61902056
Al      41.67978629      27.54129640      35.62534986
Al      43.72426084      29.51544936      35.62475506
Al      45.74540786      31.58165412      35.60405860
Al      37.63791167      21.45773486      37.62413114
Al      39.67658957      23.45767006      37.65230035
Al      41.70109971      25.48833915      37.65243659
Al      43.70959557      27.53312743      37.65369467
Al      45.76251366      29.54014617      37.65213880
Al      39.68944276      21.44685673      39.69113663
Al      41.70901412      23.47819091      39.69001566
Al      43.72830338      25.48627915      39.68311325
Al      45.74563502      27.52086858      39.67133148
Al      41.70734925      21.45626973      41.69109684
Al      43.72006603      23.48744140      41.69882674
Al      45.74105111      25.50794923      41.69459231
Al      43.71421197      21.45520760      43.71889989
Al      21.45287197      23.47622317      23.46964110
Al      23.46011423      25.49751023      23.48195471
Al      25.49573833      27.54685955      23.46198337
Al      27.52735838      29.55058904      23.47565906
Al      29.54750268      31.56503556      23.46303642
Al      31.57960141      33.60216622      23.48645500
Al      33.59381579      35.61550072      23.49266181
Al      35.61991021      37.63772533      23.48348656
Al      37.66437930      39.67200005      23.46890895
Al      39.66728456      41.70310284      23.46848937
Al      41.69910153      43.73344874      23.46364042
Al      23.47623746      23.47901342      25.49340007
Al      25.50682049      25.49664498      25.49801489
Al      27.53582581      27.51060263      25.50249962
Al      29.55843603      29.55244090      25.49918875
Al      31.60231033      31.57068637      25.50201450
Al      33.61894809      33.61125868      25.49617864
Al      35.61320467      35.61102541      25.49175118
Al      37.65315471      37.64722692      25.49607713
Al      39.67517076      39.68670666      25.50819156
Al      41.69488545      41.68954264      25.50656022
Al      43.71747108      43.75903517      25.48586909
Al      25.48776638      23.49683154      27.54658128
Al      27.52353639      25.50110643      27.52457392
Al      29.53639057      27.53410975      27.52518315
Al      31.56191177      29.55067993      27.52730589
Al      33.58351405      31.56430749      27.51865268
Al      35.63476516      33.61247160      27.53927751
Al      37.65603391      35.61728084      27.52928881
Al      39.67144767      37.62774275      27.53145770
Al      41.69868130      39.66354073      27.52234852
Al      43.71754591      41.70220464      27.52999473
Al      27.53736310      23.47701223      29.56172546
Al      29.55555402      25.48424190      29.55009999
Al      31.57028802      27.54456882      29.54770361
Al      33.57671236      29.54934213      29.55635159
Al      35.64155165      31.58818855      29.56056444
Al      37.65190125      33.59398042      29.56873449
Al      39.68824222      35.61742736      29.55126735
Al      41.71082309      37.66147502      29.54468838
Al      43.72775966      39.66091206      29.54449294
Al      29.55137283      23.46680723      31.57440446
Al      31.58291685      25.49251468      31.57439165
Al      33.60451706      27.52089441      31.57486756
Al      35.61554024      29.54084495      31.56723608
Al      37.64836348      31.55878269      31.58634931
Al      39.67669376      33.60493189      31.55687592
Al      41.70080117      35.63770293      31.55944887
Al      43.73293935      37.66638122      31.58468470
Al      31.57176223      23.44966905      33.58806788
Al      33.59549282      25.50331310      33.58860937
Al      35.62118636      27.51650797      33.62413555
Al      37.63882158      29.55571895      33.58905905
Al      39.68075783      31.57854203      33.58160080
Al      41.70989841      33.58881921      33.60921242
Al      43.74629691      35.62972307      33.60592679
Al      45.74576013      37.63456065      33.61537534
Al      33.61987320      23.47979519      35.61346753
Al      35.61703919      25.48819447      35.60493614
Al      37.64711594      27.50953300      35.61890369
Al      39.67593238      29.55829188      35.62074265
Al      41.68472030      31.57259243      35.63440079
Al      43.72972467      33.60567191      35.63471531
Al      45.74925399      35.63232555      35.61384788
Al      35.62232729      23.47360699      37.66404456
Al      37.66914292      25.48842539      37.64760797
Al      39.69945331      27.53052726      37.65470472
Al      41.71050282      29.55366010      37.66555011
Al      43.72802417      31.56026881      37.66350444
Al      45.76497816      33.59441132      37.63659070
Al      37.65265301      23.47175673      39.67484736
Al      39.68117310      25.50163065      39.67785408
Al      41.68424778      27.52287888      39.67975931
Al      43.72850269      29.54469581      39.67463027
Al      39.65616700      23.47456201      41.71009478
Al      41.71895119      25.50394273      41.69326408
Al      43.71897712      27.52615060      41.69099940
Al      41.70295826      23.47243187      43.72997376
Al      43.71416813      25.50517445      43.73395667
Al      21.43718769      25.51511431      25.49637615
Al      23.46773592      27.52567210      25.50005066
Al      25.50528336      29.54134592      25.50157404
Al      27.51337466      31.57243993      25.49294713
Al      29.56032590      33.59281518      25.51245669
Al      31.57982304      35.63003750      25.49895311
Al      33.59885880      37.63103678      25.50045484
Al      35.63644563      39.66525649      25.50456133
Al      37.63356817      41.70953589      25.51259560
Al      39.66514471      43.73349438      25.51456401
Al      41.70426588      45.75361630      25.49502381
Al      23.48811473      25.50507470      27.51726956
Al      25.51217212      27.51233999      27.53190756
Al      27.53661406      29.53433157      27.50658655
Al      29.55053845      31.55160398      27.53124536
Al      31.57881994      33.59622182      27.52691282
Al      33.58844299      35.63005120      27.52745600
Al      35.61635872      37.63841965      27.54454099
Al      37.66276685      39.67242065      27.52757614
Al      39.67108158      41.70462261      27.51780218
Al      41.68169513      43.72918327      27.52138294
Al      25.51266479      25.50579154      29.55610058
Al      27.52327286      27.52925708      29.55475828
Al      29.56298060      29.55752787      29.52875195
Al      31.58775612      31.58605838      29.56036256
Al      33.59301326      33.60195190      29.54145222
Al      35.62337391      35.62758177      29.55474923
Al      37.62979729      37.65520982      29.55678232
Al      39.68936239      39.67164663      29.55139082
Al      41.71971927      41.70124236      29.52647500
Al      27.51494606      25.51558467      31.56858548
Al      29.55655345      27.52752467      31.56192045
Al      31.57304350      29.55271181      31.58460460
Al      33.60625640      31.57876961      31.58097990
Al      35.61058954      33.60006393      31.58670786
Al      37.65648398      35.62298723      31.55408722
Al      39.67905371      37.65675096      31.56971904
Al      41.72118064      39.68451880      31.58483597
Al      43.71073087      41.70370555      31.57918949
Al      29.55619520      25.50304340      33.61959125
Al      31.57898691      27.52002884      33.61159888
Al      33.59144034      29.54546269      33.60503179
Al      35.62494784      31.59355897      33.57479412
Al      37.64821942      33.60822813      33.58868566
Al      39.67285728      35.61330438      33.60136556
Al      41.71222564      37.64794397      33.59856759
Al      43.72304592      39.66498480      33.61846296
Al      31.58051903      25.50352046      35.61086526
Al      33.58814909      27.52019719      35.61037058
Al      35.63201249      29.54203978      35.61858607
Al      37.66158821      31.58502108      35.62360258
Al      39.68142353      33.60970312      35.63242293
Al      41.70444166      35.64095250      35.62514825
Al      43.73495418      37.64068240      35.63022395
Al      33.58658851      25.52177629      37.65081300
Al      35.61380896      27.54230022      37.63675702
Al      37.65029011      29.55665471      37.63664053
Al      39.68027790      31.57680127      37.65041257
Al      41.70000154      33.60156138      37.64894074
Al      43.72529870      35.63219374      37.63534990
Al      35.62714507      25.50915958      39.66915798
Al      37.67223453      27.52669150      39.66300452
Al      39.67292750      29.56124640      39.67220694
Al      41.69584545      31.58777095      39.66137866
Al      43.72882120      33.57155078      39.68392981
Al      37.64465551      25.50455608      41.70305070
Al      39.68117882      27.54502813      41.69838774
Al      41.69627487      29.55117990      41.70193616
Al      43.73116533      31.58303544      41.69541846
Al      39.66458256      25.49518967      43.71895597
Al      41.69098758      27.53044277      43.72962852
Al      41.69946738      25.50345772      45.73886560
Al      21.44387840      27.52975376      27.52538059
Al      23.47210033      29.53804890      27.52152974
Al      25.50074548      31.56640736      27.51858321
Al      27.51098448      33.61437545      27.53213946
Al      29.56238235      35.62499913      27.52708709
Al      31.56370262      37.65627814      27.53017918
Al      33.57722331      39.68798246      27.52918142
Al      35.62753670      41.68840646      27.52761682
Al      37.67840895      43.71636449      27.52762251
Al      39.67279646      45.73557610      27.53397806
Al      23.47574510      27.52118463      29.56067350
Al      25.49168267      29.55554693      29.52990809
Al      27.52012417      31.57604692      29.53141602
Al      29.54903229      33.60291338      29.56093517
Al      31.56552180      35.61652191      29.56109537
Al      33.60336636      37.62833581      29.53887517
Al      35.62364289      39.67564824      29.54916489
Al      37.66473840      41.71271475      29.55049406
Al      39.66237816      43.71358735      29.55809444
Al      25.48106129      27.50339685      31.59027878
Al      27.52895140      29.54575610      31.56638413
Al      29.54563241      31.57890170      31.57762462
Al      31.54506009      33.59656229      31.57636886
Al      33.58988616      35.61026379      31.56650712
Al      35.64449152      37.64329617      31.57513369
Al      37.65851191      39.67079272      31.56683473
Al      39.66313727      41.70110889      31.58544762
Al      41.71748143      43.73712033      31.56237600
Al      27.52558004      27.51787045      33.60006028
Al      29.57080467      29.54811083      33.61553052
Al      31.55744498      31.56926835      33.58990035
Al      33.59761347      33.58675080      33.59737911
Al      35.62353957      35.61865078      33.59214359
Al      37.66309884      37.64752453      33.58420286
Al      39.68533246      39.65848723      33.59015711
Al      41.68381333      41.71001735      33.58531594
Al      29.56297637      27.51636936      35.62851337
Al      31.55698110      29.55451225      35.63852026
Al      33.59312204      31.56810823      35.63068826
Al      35.62120156      33.59979842      35.63720759
Al      37.65353476      35.63019253      35.61259842
Al      39.68634201      37.65253413      35.60833423
Al      41.69340726      39.68165214      35.62916335
Al      31.57456269      27.53665854      37.66145979
Al      33.61850447      29.54844527      37.64497947
Al      35.61891838      31.58328701      37.65743949
Al      37.63934843      33.59599290      37.62869776
Al      39.66007412      35.61654280      37.65149600
Al      41.71805614      37.63262941      37.64830471
Al      33.60222102      27.53696603      39.66712333
Al      35.63102735      29.56133805      39.68849211
Al      37.65134239      31.56252608      39.66996405
Al      39.68519042      33.59690580      39.67187073
Al      41.68486930      35.63638509      39.68306693
Al      35.63136507      27.52837035      41.70371653
Al      37.64522125      29.55821796      41.68308330
Al      39.66933421      31.59787865      41.71205121
Al      41.69265587      33.60129740      41.69484371
Al      37.65589437      27.52752386      43.70751637
Al      39.66306932      29.55512164      43.71687052
Al      41.68557149      31.58332304      43.71099471
Al      39.67032579      27.53027080      45.75008518
Al      21.43455262      29.54856239      29.55419257
Al      23.48677185      31.57692999      29.53980873
Al      25.49669409      33.61280605      29.55212295
Al      27.51261743      35.62929074      29.56490386
Al      29.52765194      37.63898213      29.54868331
Al      31.56880597      39.68954836      29.54761583
Al      33.59931628      41.69182743      29.54904753
Al      35.62133592      43.74047487      29.53867296
Al      37.63263479      45.74752322      29.55503616
Al      23.46883684      29.54448185      31.58315842
Al      25.51329701      31.57375178      31.57648430
Al      27.51619075      33.61323423      31.57591480
Al      29.53847371      35.63319964      31.57579997
Al      31.55853055      37.63733516      31.56482434
Al      33.58857324      39.67953444      31.59480607
Al      35.61301148      41.69966548      31.57920021
Al      37.66602680      43.73228707      31.55782202
Al      25.49830096      29.55371979      33.61052356
Al      27.53247039      31.58944028      33.60337552
Al      29.54650459      33.60600641      33.60708550
Al      31.56116386      35.64339039      33.59359993
Al      33.59614453      37.64652990      33.60457632
Al      35.62792336      39.67163646      33.59735504
Al      37.64227926      41.69745868      33.62173174
Al      39.69598004      43.72361371      33.57938117
Al      27.50267047      29.56534547      35.62673125
Al      29.55692859      31.57796111      35.60625238
Al      31.54246310      33.61696108      35.60395069
Al      33.59175243      35.61516136      35.63586270
Al      35.61952932      37.65500329      35.62897084
Al      37.65566166      39.66415170      35.63106795
Al      39.67876564      41.70934507      35.62444787
Al      29.54530026      29.55279829      37.63153891
Al      31.57327665      31.58433843      37.66116460
Al      33.58955334      33.58706501      37.65364987
Al      35.63070585      35.62700807      37.65159539
Al      37.64324499      37.65472734      37.65648574
Al      39.69243077      39.68146083      37.64280061
Al      31.57938435      29.56618618      39.67161007
Al      33.60154644      31.56701581      39.65903050
Al      35.61514799      33.60844721      39.68438175
Al      37.65095741      35.61444820      39.67465172
Al      39.67484322      37.64129443      39.66526585
Al      33.62243769      29.55224598      41.71258065
Al      35.62948462      31.57110856      41.69521143
Al      37.65977701      33.59524680      41.69793770
Al      39.69049145      35.62608526      41.69107617
Al      35.63062692      29.55640870      43.71528101
Al      37.63364533      31.57708328      43.71087377
Al      39.67817937      33.62477501      43.73473772
Al      37.63915196      29.53566008      45.73704075
Al      21.44759494      31.57716849      31.55794179
Al      23.46900309      33.61318998      31.58584481
Al      25.50649659      35.62141089      31.57877870
Al      27.51717919      37.65956541      31.57327497
Al      29.55806240      39.67522562      31.57894404
Al      31.58482476      41.69361222      31.57643226
Al      33.59329875      43.72728915      31.56884822
Al      35.63767375      45.74013018      31.56830540
Al      23.46266274      31.56372813      33.60102639
Al      25.50010999      33.59147146      33.60240387
Al      27.52364023      35.63332335      33.59751045
Al      29.53526488      37.65535154      33.59048402
Al      31.57154233      39.67662117      33.59891649
Al      33.60022464      41.70679783      33.58649914
Al      35.61855254      43.70597547      33.60608303
Al      37.65281935      45.76582895      33.60471999
Al      25.50721930      31.57442671      35.62728892
Al      27.53637691      33.59592206      35.62855683
Al      29.53886805      35.61648892      35.62945833
Al      31.57211627      37.64543240      35.63543908
Al      33.61782266      39.67051654      35.63227310
Al      35.61516811      41.69974828      35.60730474
Al      37.67870644      43.71025233      35.61758833
Al      27.51851579      31.59016644      37.63962625
Al      29.54895925      33.60649545      37.64814560
Al      31.59182538      35.61776723      37.64337383
Al      33.61281586      37.65298342      37.65282954
Al      35.61028777      39.67218605      37.64795630
Al      37.64620652      41.68249938      37.65756676
Al      29.54044442      31.55934559      39.67443184
Al      31.58221789      33.59834234      39.68276663
Al      33.59322171      35.61178494      39.68230829
Al      35.63570309      37.66024917      39.67123816
Al      37.64752297      39.68228353      39.68161332
Al      31.57443801      31.59194323      41.70876098
Al      33.59313974      33.58775925      41.70292496
Al      35.62630559      35.62246296      41.68997846
Al      37.65846231      37.65898532      41.70092121
Al      33.59574009      31.58195256      43.73191276
Al      35.64028731      33.62782770      43.71891233
Al      37.63790087      35.61279422      43.72511478
Al      35.63928968      31.57316555      45.76323136
Al      37.65292453      33.59672553      45.75388839
Al      21.46293141      33.59603442      33.60863519
Al      23.45941819      35.60706571      33.60439279
Al      25.50955895      37.65889825      33.59300277
Al      27.52218326      39.64575530      33.59395438
Al      29.54195872      41.71111903      33.60263742
Al      31.57785576      43.70832637      33.60110938
Al      33.60969828      45.72863357      33.58688334
Al      23.48129856      33.60355942      35.63706527
Al      25.51233939      35.61821416      35.63659980
Al      27.53310563      37.65168940      35.63205282
Al      29.56064618      39.66981175      35.62165591
Al      31.57308656      41.68923593      35.63085613
Al      33.59923215      43.71162365      35.62437961
Al      35.63591346      45.75316092      35.61185575
Al      25.49061593      33.61253055      37.64444360
Al      27.53612489      35.61068105      37.63530244
Al      29.56200130      37.63498929      37.65904091
Al      31.59330538      39.67253300      37.65510445
Al      33.60626854      41.70972398      37.64803946
Al      35.61100871      43.71495559      37.63367760
Al      27.52469640      33.59524829      39.67437863
Al      29.55645721      35.60626073      39.67237317
Al      31.56347824      37.64037833      39.67223953
Al      33.59797790      39.69055100      39.68634779
Al      35.62819272      41.70766264      39.67888183
Al      29.55629362      33.58745338      41.71524755
Al      31.57406818      35.60054860      41.69174966
Al      33.59579839      37.61420624      41.68865580
Al      35.62638276      39.68925924      41.69152391
Al      31.58082015      33.59663893      43.71853307
Al      33.60374959      35.61399821      43.74239686
Al      35.61885486      37.65661638      43.71019424
Al      33.58660967      33.59492085      45.76072539
Al      35.62137638      35.62614176      45.75492270
Al      21.45065685      35.63198371      35.61690168
Al      23.47507390      37.64509022      35.63915976
Al      25.49232599      39.69318755      35.61252045
Al      27.53107906      41.70482696      35.62565512
Al      29.53114169      43.73514098      35.62377066
Al      31.59262077      45.75652777      35.64683527
Al      23.46240329      35.61654335      37.64611644
Al      25.48264073      37.64637804      37.67986315
Al      27.51115147      39.66701980      37.66760830
Al      29.53298287      41.69281483      37.66274639
Al      31.57316175      43.71610484      37.61858944
Al      33.59100835      45.75779416      37.64641199
Al      25.48671976      35.63965107      39.65944345
Al      27.50674344      37.65991626      39.69337846
Al      29.54153979      39.67810149      39.68049305
Al      31.57986475      41.71125468      39.67768849
Al      33.61247726      43.72308169      39.66885388
Al      27.53987610      35.62058477      41.69526964
Al      29.54102182      37.64898986      41.70759897
Al      31.56109894      39.67023086      41.68796288
Al      33.60743316      41.69982874      41.71348405
Al      29.54524346      35.64870953      43.72649708
Al      31.57638241      37.63446331      43.73747615
Al      33.59033898      39.67897667      43.70927884
Al      31.59281895      35.62106448      45.72578734
Al      33.61480269      37.64048249      45.73954356
Al      21.44816305      37.64781775      37.63146477
Al      23.47630427      39.67565928      37.64778409
Al      25.49211954      41.68574389      37.64588450
Al      27.51839870      43.73394634      37.64855536
Al      29.54595424      45.77270965      37.65078492
Al      23.48607634      37.62818383      39.70060585
Al      25.51041057      39.66912104      39.67081338
Al      27.52167182      41.69210383      39.67859711
Al      29.55893135      43.70902261      39.68868310
Al      25.49267213      37.63587346      41.70400130
Al      27.51950269      39.67369806      41.70540794
Al      29.55966194      41.68403096      41.68782424
Al      31.57127844      43.73150512      41.70058462
Al      27.52334604      37.64929690      43.71440775
Al      29.54081818      39.66244221      43.72800532
Al      31.56662755      41.71122779      43.72208083
Al      29.54138864      37.65543091      45.75827267
Al      21.44787169      39.68156558      39.66488900
Al      23.47472578      41.68139148      39.67760109
Al      25.49959147      43.73098198      39.66794274
Al      27.51785618      45.73120152      39.68022103
Al      23.47700884      39.67952314      41.70485103
Al      25.49408569      41.70093910      41.68162234
Al      27.50987353      43.71487351      41.70511317
Al      25.48223764      39.67709466      43.70874273
Al      27.52781487      41.70120128      43.72388781
Al      27.52022704      39.67116574      45.75639913
Al      21.42309146      41.69405959      41.71388245
Al      23.47689011      43.70980018      41.68524893
Al      25.50480311      45.75083392      41.69784767
Al      23.48488889      41.70060145      43.71929115
Al      25.50337084      43.72353035      43.73074126
Al      25.50130565      41.70234056      45.73990018
Al      21.45402135      43.73020546      43.72144879
