256
Lattice="10.618302266427136 0.0 0.0 0.0 11.415230654768356 0.0 0.0 0.0 14.262346475187517" Properties=species:S:1:pos:R:3 id=sample_001095 pbc="F F F"
Fe      -0.00506447       0.00255882       0.01866042
Fe       0.01338020       1.42412739       1.77403132
Fe       1.31309377       0.00277988       1.78081218
Fe       1.33062666       1.42755971      -0.01116542
Fe       0.00673172       0.00145043       3.56412892
Fe      -0.02001107       1.43107121       5.35672448
Fe       1.32996229      -0.00366606       5.34799962
Fe       1.32307494       1.43334857       3.57280162
Fe      -0.01477201       0.01447435       7.14073176
Fe       0.00272118       1.42384602       8.90899747
Fe       1.33186003       0.00718900       8.90647359
Fe       1.32359923       1.41908318       7.13566005
Fe      -0.00298736       0.00948698      10.68534961
Fe      -0.00179750       1.41335402      12.47614566
Fe       1.32636729       0.01333158      12.48016875
Fe       1.32773775       1.41426276      10.70742379
Fe      -0.00600555       2.85174196       0.01523612
Fe       0.00232350       4.29318233       1.76599200
Fe       1.32964122       2.84618433       1.78122702
Fe       1.31074616       4.27394902      -0.01281397
Fe      -0.00763472       2.83570594       3.57088688
Fe       0.00092923       4.26596124       5.33029728
Fe       1.33533487       2.83894167       5.36782473
Fe       1.31982092       4.28173775       3.56507602
Fe       0.01215672       2.84825293       7.14511005
Fe      -0.00163183       4.27123948       8.90771782
Fe       1.31998632       2.85037450       8.92085623
Fe       1.32228085       4.27883574       7.13638431
Fe       0.01408131       2.83934844      10.69744287
Fe       0.00062064       4.28170427      12.48052580
Fe       1.32599554       2.85567044      12.49444754
Fe       1.32900863       4.27595806      10.69316388
Fe      -0.00471979       5.70927918      -0.01010414
Fe       0.00362350       7.10801886       1.78199877
Fe       1.31353675       5.70844444       1.77983290
Fe       1.31222109       7.13178082      -0.00001593
Fe       0.00269798       5.68719895       3.55774570
Fe       0.00401367       7.14051663       5.33624072
Fe       1.31052492       5.69054481       5.36222331
Fe       1.32790785       7.12537439       3.56481608
Fe       0.00255040       5.70500128       7.12317829
Fe       0.00868222       7.14028825       8.90898211
Fe       1.31648796       5.71601362       8.91358674
Fe       1.31961334       7.13257171       7.13006543
Fe      -0.00650674       5.71450698      10.69365229
Fe       0.00935344       7.13943827      12.47920934
Fe       1.33109571       5.71864929      12.49145542
Fe       1.33771286       7.14342239      10.69565864
Fe      -0.01212839       8.57239527      -0.00416778
Fe       0.00983843       9.98743357       1.78393950
Fe       1.33207011       8.54302308       1.78198016
Fe       1.33190253       9.98397356       0.00179505
Fe       0.00499066       8.55423921       3.57578345
Fe       0.00183182       9.98635273       5.35409829
Fe       1.33738242       8.56325010       5.35051421
Fe       1.31755079       9.98097514       3.56434175
Fe      -0.00775441       8.56094699       7.13543982
Fe      -0.00638486       9.97137240       8.92163621
Fe       1.32576148       8.53404660       8.91141172
Fe       1.33052047       9.98850915       7.14053528
Fe       0.00702395       8.57137517      10.68174593
Fe      -0.00557797       9.97471508      12.47647474
Fe       1.32831494       8.56359648      12.47638325
Fe       1.33733609       9.98808649      10.69082621
Fe       2.66480460      -0.01526352      -0.00088413
Fe       2.64615935       1.42644198       1.78587062
Fe       3.98387801      -0.01400102       1.77471206
Fe       3.97270057       1.42171513       0.00682326
Fe       2.64196686       0.00088141       3.53783710
Fe       2.64635812       1.44034843       5.35631230
Fe       3.98856849       0.01038603       5.32700742
Fe       3.97678752       1.42570105       3.57426095
Fe       2.65486001       0.00323350       7.14508838
Fe       2.65857426       1.41755363       8.91651997
Fe       3.98809138      -0.00162249       8.89804485
Fe       3.98564539       1.42846453       7.12616788
Fe       2.65169114      -0.00887975      10.69674738
Fe       2.65605718       1.44167600      12.48603990
Fe       3.98541102       0.01711349      12.47315966
Fe       3.98556406       1.42794234      10.68611878
Fe       2.65885829       2.85542175      -0.01157348
Fe       2.66365227       4.25957347       1.79810205
Fe       3.97525352       2.84849623       1.76528123
Fe       3.99423493       4.28614144       0.00892074
Fe       2.65629882       2.82545923       3.57590881
Fe       2.63872050       4.27663763       5.35156729
Fe       3.99223761       2.87234357       5.35084208
Fe       3.98660722       4.26181581       3.55586288
Fe       2.66627191       2.85101933       7.13229790
Fe       2.64822773       4.28539507       8.91150379
Fe       4.00094488       2.84990395       8.90946073
Fe       3.98313468       4.26327364       7.16578717
Fe       2.66222769       2.85927491      10.70854996
Fe       2.64486132       4.26979152      12.47658754
Fe       3.97800323       2.85461806      12.48334230
Fe       4.00075863       4.27984649      10.67614897
Fe       2.65074513       5.71836725       0.00207130
Fe       2.66576556       7.14830181       1.78788918
Fe       3.97871569       5.69722479       1.78201341
Fe       3.98982481       7.15246271       0.00966215
Fe       2.63535071       5.69330222       3.54429797
Fe       2.65201160       7.12480291       5.35424818
Fe       3.99477087       5.70210088       5.34309458
Fe       3.98896173       7.12721713       3.56886553
Fe       2.66511177       5.70894816       7.12874354
Fe       2.64883264       7.14474762       8.92350633
Fe       3.98910516       5.69146663       8.90957391
Fe       3.98915664       7.13122711       7.12597203
Fe       2.65056262       5.70210330      10.69975438
Fe       2.65664998       7.14614439      12.46659506
Fe       3.97605945       5.70219461      12.49221035
Fe       3.98629354       7.13814063      10.70206689
Fe       2.64628308       8.56987735       0.00276143
Fe       2.65668430       9.98190085       1.77357690
Fe       3.97541582       8.56058164       1.78912387
Fe       3.96272462       9.98789818       0.00992132
Fe       2.65899799       8.55763559       3.54860707
Fe       2.66208999       9.96355315       5.34869809
Fe       3.96486886       8.56576014       5.35329860
Fe       3.96498240       9.99454541       3.57092544
Fe       2.67256570       8.55558723       7.14192339
Fe       2.64419641       9.97858821       8.91099615
Fe       3.98740390       8.56834336       8.89396463
Fe       3.97857756       9.99473988       7.11125640
Fe       2.65947280       8.56341929      10.69026138
Fe       2.64181499       9.98976150      12.49075484
Fe       3.99481017       8.56434864      12.48094803
Fe       3.99464580      10.00007532      10.71173120
Fe       5.30547741       0.02825141       0.00107073
Fe       5.31724379       1.42945473       1.79458289
Fe       6.63644666      -0.00434446       1.78362026
Fe       6.63820935       1.42925473      -0.00397474
Fe       5.31128427       0.00731171       3.59396632
Fe       5.31117838       1.42350479       5.34255863
Fe       6.65102681      -0.00173630       5.33762386
Fe       6.63225777       1.43529575       3.55436134
Fe       5.33158134       0.00500663       7.13284320
Fe       5.29855537       1.44338273       8.93278680
Fe       6.64503533      -0.00941464       8.89553360
Fe       6.63453984       1.44254218       7.13347200
Fe       5.29695836       0.00446226      10.71229345
Fe       5.30813136       1.42485519      12.47417169
Fe       6.64465778       0.00216907      12.49000814
Fe       6.64640629       1.43192680      10.70424699
Fe       5.29082108       2.85339791       0.01571735
Fe       5.30536253       4.27757911       1.78630092
Fe       6.62337215       2.87429740       1.79145106
Fe       6.64634330       4.27104591       0.00158766
Fe       5.29349018       2.85624998       3.55984583
Fe       5.31687069       4.29436702       5.35559454
Fe       6.62803894       2.85033803       5.35196436
Fe       6.64972105       4.28921820       3.55195150
Fe       5.31707572       2.83836553       7.12921249
Fe       5.30857190       4.26888784       8.90491605
Fe       6.62220204       2.86922763       8.91192735
Fe       6.62947693       4.25869166       7.13040239
Fe       5.31154572       2.85644220      10.69533461
Fe       5.30015290       4.28256468      12.45544608
Fe       6.64002085       2.84896565      12.47637483
Fe       6.63718462       4.28113261      10.69134954
Fe       5.31732868       5.69695532       0.00764900
Fe       5.32129522       7.14299835       1.78333763
Fe       6.64037116       5.69785891       1.78036090
Fe       6.63089480       7.12139219      -0.00016860
Fe       5.30831530       5.72026708       3.56901765
Fe       5.30752655       7.13937803       5.35076874
Fe       6.64402347       5.70980284       5.34715116
Fe       6.61824687       7.14266457       3.57079091
Fe       5.31091419       5.70933938       7.13894822
Fe       5.30468027       7.12459549       8.90574299
Fe       6.62620632       5.68610017       8.92277587
Fe       6.63994512       7.14451930       7.10316601
Fe       5.30750686       5.70197790      10.70563253
Fe       5.30521226       7.13183990      12.47029538
Fe       6.61135374       5.71388213      12.48619967
Fe       6.64046832       7.12576604      10.69642496
Fe       5.32564502       8.55940111      -0.00015132
Fe       5.31676062       9.99813999       1.80436135
Fe       6.65224234       8.55724677       1.78221729
Fe       6.61329223       9.99471551      -0.00004643
Fe       5.30647217       8.56006136       3.56024018
Fe       5.30966640       9.99928127       5.33812018
Fe       6.66167048       8.57768277       5.34232548
Fe       6.62316846      10.00168187       3.56157679
Fe       5.30975338       8.57924943       7.11421395
Fe       5.30517676       9.99715098       8.92364809
Fe       6.64291806       8.56596520       8.90272495
Fe       6.64534851       9.98230267       7.12679877
Fe       5.30645719       8.57365231      10.68861190
Fe       5.29089065       9.97835129      12.47212886
Fe       6.62531777       8.53852694      12.47176027
Fe       6.62307371       9.98378764      10.68621029
Fe       7.95189264      -0.01539778      -0.00150688
Fe       7.96205563       1.42633021       1.77943623
Fe       9.30469347       0.00351571       1.77389021
Fe       9.29747385       1.42456968      -0.01486222
Fe       7.96566272       0.00226599       3.56877400
Fe       7.94403090       1.41782488       5.35379910
Fe       9.29682948       0.01096009       5.35078003
Fe       9.29203905       1.44008763       3.57056768
Fe       7.96263187      -0.00510224       7.14211923
Fe       7.96837712       1.41972466       8.91092580
Fe       9.31004330       0.02225254       8.90668499
Fe       9.29191837       1.43318237       7.12576255
Fe       7.98595261       0.00270893      10.69112578
Fe       7.94178650       1.41902611      12.47106022
Fe       9.29135771       0.01102483      12.48066451
Fe       9.28284123       1.42568993      10.70764709
Fe       7.96569251       2.85046562      -0.00145078
Fe       7.94841588       4.28765820       1.79935898
Fe       9.27132258       2.87867303       1.77547156
Fe       9.29202736       4.30738054       0.00099246
Fe       7.96009943       2.85125193       3.56420881
Fe       7.95912245       4.28055896       5.36358495
Fe       9.29028530       2.84845798       5.35446893
Fe       9.28805236       4.27363649       3.56976974
Fe       7.96567306       2.85000014       7.13236561
Fe       7.96090267       4.29599700       8.90531666
Fe       9.29550935       2.86519740       8.90346480
Fe       9.29712570       4.28749157       7.11273360
Fe       7.98644385       2.85323034      10.69328352
Fe       7.95431143       4.29898806      12.48693247
Fe       9.30835509       2.84230188      12.49761435
Fe       9.28007815       4.26589623      10.70302185
Fe       7.95873581       5.69976939       0.01125707
Fe       7.96968530       7.12519267       1.77080199
Fe       9.28905604       5.69920023       1.78537000
Fe       9.29804996       7.12953985       0.00442260
Fe       7.96950280       5.69219701       3.57361978
Fe       7.95781644       7.12714497       5.35554496
Fe       9.28670304       5.70647483       5.33567170
Fe       9.29675098       7.12058653       3.56470607
Fe       7.97502933       5.70697149       7.12415979
Fe       7.96446961       7.13765811       8.91972687
Fe       9.29852532       5.71595378       8.92064892
Fe       9.28795662       7.14950572       7.15248494
Fe       7.96418844       5.70360397      10.69401753
Fe       7.95294521       7.13893729      12.48348705
Fe       9.28019274       5.71066642      12.47692519
Fe       9.28512068       7.14480079      10.68859176
Fe       7.97237676       8.56215402       0.01039718
Fe       7.96611723       9.97936207       1.79116386
Fe       9.29754228       8.54512855       1.78853381
Fe       9.29590838       9.98906125      -0.00039360
Fe       7.96137403       8.57525588       3.55399743
Fe       7.95262194       9.98911167       5.34441664
Fe       9.30107284       8.56078592       5.35946102
Fe       9.29095463       9.98807128       3.57019770
Fe       7.96389147       8.55945213       7.13323492
Fe       7.94765540       9.98513911       8.90018192
Fe       9.30145685       8.55463985       8.92106881
Fe       9.28853795       9.98546074       7.13514157
Fe       7.96063685       8.55953834      10.68258603
Fe       7.95280972       9.99280259      12.47551472
Fe       9.28435252       8.56035093      12.47409357
Fe       9.28802923      10.00166351      10.70485876
