500
Lattice="22.710699564054735 0.0 0.0 0.0 20.30378787150135 0.0 0.0 0.0 23.22537393186687" Properties=species:S:1:pos:R:3 id=sample_000984 pbc="F F F"
Cu       0.00329881      -0.00717571      -0.00094533
Cu       0.00497085       2.03383664       2.31490420
Cu       2.26264601       0.00685791       2.33142904
Cu       2.26901596       2.03084750      -0.01623579
Cu       0.02021662       0.00123538       4.64059748
Cu       0.00274089       2.03399541       6.95642824
Cu       2.25330559      -0.00000591       6.97268760
Cu       2.29043605       2.02187054       4.63961430
Cu       0.01465034      -0.02826434       9.29312700
Cu      -0.00321441       2.04607588      11.61660430
Cu       2.28910431      -0.00447624      11.61124851
Cu       2.27685092       2.01171020       9.28124142
Cu      -0.00090423      -0.00558130      13.93216048
Cu      -0.02585730       2.02800292      16.26957128
Cu       2.28023642       0.00498994      16.26161779
Cu       2.27881773       2.02905211      13.93606040
Cu       0.00917227      -0.00960266      18.55641741
Cu       0.00959777       2.02013413      20.90731114
Cu       2.26755417       0.00064316      20.91735126
Cu       2.25748094       2.01519348      18.57311732
Cu      -0.00818772       4.06444936       0.01286534
Cu       0.00936438       6.09534184       2.32968473
Cu       2.27254621       4.05974217       2.32798003
Cu       2.27364743       6.09737410       0.00418115
Cu      -0.01191819       4.05334799       4.63309505
Cu       0.00418788       6.08486217       6.97336148
Cu       2.29067094       4.06879672       6.96633792
Cu       2.26563474       6.09355047       4.65654326
Cu       0.00234958       4.06121948       9.30575440
Cu      -0.01158288       6.10032247      11.60573073
Cu       2.27688302       4.05957887      11.62476006
Cu       2.26118831       6.09424627       9.30907377
Cu      -0.00106608       4.04867463      13.93346557
Cu       0.00637689       6.08334827      16.26080465
Cu       2.26423983       4.08034629      16.24704857
Cu       2.27477532       6.08135605      13.94526133
Cu      -0.00627984       4.06160633      18.57334864
Cu      -0.00600899       6.08945072      20.91621466
Cu       2.26188180       4.05766695      20.90756002
Cu       2.27709103       6.07700813      18.58549004
Cu      -0.01112118       8.10946894       0.00154327
Cu      -0.00705969      10.17112139       2.32287822
Cu       2.29344132       8.11299834       2.31087816
Cu       2.28912886      10.15335436       0.00788537
Cu      -0.01233383       8.12434995       4.62907311
Cu      -0.00649751      10.14468660       6.97743595
Cu       2.28302599       8.12535200       6.97221883
Cu       2.28693000      10.14745496       4.64746297
Cu       0.01382065       8.11361511       9.30053956
Cu      -0.01395512      10.15593926      11.61791688
Cu       2.26029156       8.10579333      11.60754072
Cu       2.26978186      10.13191012       9.29038433
Cu      -0.00402499       8.11534433      13.93058348
Cu      -0.00172731      10.14486449      16.26185752
Cu       2.26415851       8.13508961      16.24347664
Cu       2.28308275      10.14237553      13.93644219
Cu      -0.00142164       8.08911325      18.57451247
Cu      -0.00384043      10.16259380      20.91359527
Cu       2.26900315       8.12129905      20.90574071
Cu       2.25052698      10.13909464      18.56731668
Cu       0.01312219      12.16941166       0.01927894
Cu      -0.01459468      14.22949089       2.31084489
Cu       2.27568860      12.19085037       2.32053915
Cu       2.27880370      14.22380117      -0.01267695
Cu       0.00806262      12.17516085       4.63787939
Cu       0.00280022      14.22763550       6.96915754
Cu       2.27287769      12.17906614       6.94974779
Cu       2.26983095      14.19717798       4.63001066
Cu      -0.00527819      12.18456934       9.28404099
Cu       0.00882157      14.19981916      11.62228917
Cu       2.27594994      12.17359192      11.62444034
Cu       2.27763991      14.20633371       9.29688005
Cu      -0.00049263      12.17365501      13.93375649
Cu       0.00320136      14.21108553      16.25651940
Cu       2.25821871      12.19171219      16.26488834
Cu       2.27620902      14.21659208      13.93195000
Cu      -0.00050403      12.17516631      18.56783859
Cu       0.01273010      14.20689390      20.91034742
Cu       2.28200178      12.18617887      20.90474964
Cu       2.26672717      14.21866184      18.56223385
Cu       0.01663316      16.24849655       0.00362995
Cu       0.01183672      18.26565866       2.32402023
Cu       2.27181721      16.24730312       2.34018030
Cu       2.27645169      18.26330350      -0.00319729
Cu       0.00145025      16.23278201       4.65243937
Cu      -0.00259507      18.28061456       6.95647126
Cu       2.27402353      16.25303616       6.97540634
Cu       2.28206635      18.25742736       4.63417944
Cu      -0.00627822      16.26459095       9.29173056
Cu      -0.02273680      18.28062232      11.60955501
Cu       2.26820284      16.24660450      11.61021018
Cu       2.26534541      18.27701552       9.28652092
Cu      -0.00494875      16.24948164      13.93510968
Cu       0.00124836      18.27592904      16.25272830
Cu       2.27211642      16.23549150      16.26344418
Cu       2.27767468      18.29380392      13.94242574
Cu      -0.00226760      16.23273209      18.57427369
Cu       0.00067212      18.27254154      20.91569417
Cu       2.27241354      16.24420027      20.89055893
Cu       2.28443031      18.28597562      18.58104277
Cu       4.54039906       0.01277472      -0.01242959
Cu       4.55012873       2.01308990       2.31793955
Cu       6.81588902      -0.01201804       2.31524001
Cu       6.81622392       2.01735831       0.00020941
Cu       4.54808810      -0.00244165       4.64303591
Cu       4.53030032       2.02335214       6.97307417
Cu       6.80789268      -0.01083369       6.97470761
Cu       6.80349711       2.05272625       4.65559874
Cu       4.54441979       0.01046273       9.28767115
Cu       4.52999678       2.02497761      11.61067327
Cu       6.82583970      -0.00635850      11.61905313
Cu       6.82300544       2.02140596       9.28837619
Cu       4.55668865       0.01426548      13.92819032
Cu       4.53998959       2.04877176      16.25885190
Cu       6.82545404      -0.00874899      16.23952732
Cu       6.81789973       2.02874851      13.91437212
Cu       4.55122976      -0.00184685      18.55871486
Cu       4.52828858       2.03129039      20.90662700
Cu       6.82300767       0.00182640      20.89088552
Cu       6.80418372       2.02020617      18.58081623
Cu       4.53823494       4.05711612       0.00793508
Cu       4.54242763       6.07056417       2.31923006
Cu       6.81962898       4.05258105       2.32042762
Cu       6.81150918       6.09106014      -0.01018466
Cu       4.53640174       4.06129011       4.65489225
Cu       4.54183063       6.10002886       6.95755895
Cu       6.81551932       4.05618807       6.97137095
Cu       6.81053645       6.09914109       4.64710722
Cu       4.56386496       4.07437705       9.28700352
Cu       4.55154760       6.07844657      11.61950882
Cu       6.80424828       4.06201256      11.61023122
Cu       6.82840783       6.10464161       9.30424218
Cu       4.56906933       4.07614912      13.93496921
Cu       4.53017074       6.08971016      16.24598858
Cu       6.82503566       4.07737378      16.25937204
Cu       6.80356705       6.10317536      13.93906926
Cu       4.53402499       4.07104985      18.58445174
Cu       4.54247950       6.10008957      20.91380196
Cu       6.80302150       4.06637563      20.89458418
Cu       6.82712206       6.07608352      18.58959801
Cu       4.53101217       8.12087046       0.00447167
Cu       4.53983276      10.16090152       2.32110050
Cu       6.81074671       8.11942608       2.33378649
Cu       6.81575842      10.14675299       0.01153793
Cu       4.53947955       8.11822761       4.66166277
Cu       4.53922046      10.17404926       6.95005039
Cu       6.80815276       8.13281125       6.95380123
Cu       6.80410130      10.16794249       4.63318455
Cu       4.54949409       8.11482294       9.30389710
Cu       4.53358929      10.14221952      11.60506442
Cu       6.82386756       8.12086330      11.61879451
Cu       6.80520453      10.15291719       9.29538118
Cu       4.54901643       8.11945990      13.91845007
Cu       4.55242944      10.16115109      16.26263629
Cu       6.82177958       8.12377628      16.25434665
Cu       6.81528677      10.15148177      13.94010908
Cu       4.53118267       8.13871637      18.58206009
Cu       4.54508467      10.14687352      20.90567935
Cu       6.80185662       8.12579278      20.89924110
Cu       6.81935716      10.16428653      18.57852485
Cu       4.53506967      12.18035940      -0.01096855
Cu       4.52980500      14.19823650       2.30784252
Cu       6.80631613      12.17795661       2.32306103
Cu       6.81778916      14.21879183      -0.00150866
Cu       4.53670831      12.18042975       4.64966864
Cu       4.55196502      14.20703968       6.97481326
Cu       6.82274402      12.16897327       6.97047620
Cu       6.81157022      14.21339504       4.64734064
Cu       4.54777044      12.20229471       9.28223993
Cu       4.54512173      14.20306802      11.60290615
Cu       6.81231224      12.18472406      11.60896517
Cu       6.81318716      14.21118858       9.28602543
Cu       4.54110149      12.18635492      13.93455085
Cu       4.52207578      14.21007295      16.26189897
Cu       6.81570980      12.17736284      16.27415230
Cu       6.81536965      14.21629740      13.93657066
Cu       4.54306994      12.19508454      18.58478522
Cu       4.55063261      14.21525894      20.90261245
Cu       6.81925870      12.16882580      20.91577991
Cu       6.80125935      14.22965397      18.58244676
Cu       4.53292656      16.24151494      -0.01110299
Cu       4.56209828      18.27191942       2.33233046
Cu       6.80605274      16.26186129       2.32710311
Cu       6.82452728      18.28006201       0.00109095
Cu       4.54356859      16.24335368       4.64333979
Cu       4.54184805      18.25588418       6.98807403
Cu       6.81266137      16.23389256       6.95823449
Cu       6.84185788      18.27361025       4.65379493
Cu       4.54646889      16.25421303       9.29815976
Cu       4.55012907      18.26829334      11.61333018
Cu       6.81294803      16.23820241      11.60453401
Cu       6.80708821      18.26762327       9.27997537
Cu       4.56261887      16.24499456      13.93546661
Cu       4.54543940      18.26768946      16.27130640
Cu       6.79202052      16.24184616      16.25177586
Cu       6.79957635      18.26308311      13.94078624
Cu       4.55304078      16.25855461      18.58328400
Cu       4.53921807      18.28496905      20.91293427
Cu       6.79670571      16.24829761      20.89454965
Cu       6.80753696      18.27487307      18.59011157
Cu       9.08789380       0.00592866       0.00016362
Cu       9.07646041       2.00846053       2.33066125
Cu      11.35409410      -0.01507197       2.32344584
Cu      11.35762094       2.00853012       0.01739708
Cu       9.08607621      -0.01913184       4.64813295
Cu       9.09559207       2.02378251       6.98766138
Cu      11.37486136      -0.00826762       6.97166589
Cu      11.34578596       2.03279733       4.64815188
Cu       9.07777981      -0.00721012       9.30653496
Cu       9.07716877       2.00933888      11.60529976
Cu      11.36508659      -0.00413746      11.60403809
Cu      11.34265725       2.04851654       9.30638270
Cu       9.07098833      -0.00138033      13.93178962
Cu       9.08518173       2.04552463      16.26736145
Cu      11.34469883      -0.00607131      16.25134625
Cu      11.35611530       2.03397355      13.94825180
Cu       9.10138815      -0.00280035      18.57915259
Cu       9.10994383       2.01454159      20.91061911
Cu      11.35448282       0.00014596      20.89442001
Cu      11.35362166       2.03159425      18.57114001
Cu       9.08515999       4.05327758       0.02201688
Cu       9.07671761       6.07904828       2.31164404
Cu      11.36243321       4.04951308       2.33303065
Cu      11.36112997       6.07629207      -0.00280951
Cu       9.06890743       4.06013182       4.64460502
Cu       9.08005044       6.08813123       6.95097327
Cu      11.34823625       4.07028447       6.95388470
Cu      11.35967757       6.09655695       4.65614441
Cu       9.09033037       4.05449428       9.27804924
Cu       9.08376789       6.09237881      11.60385137
Cu      11.35781720       4.06954197      11.62362983
Cu      11.35151850       6.09528099       9.27972711
Cu       9.08661538       4.07379518      13.93117625
Cu       9.09787457       6.07436160      16.26740429
Cu      11.36514147       4.05702996      16.24426079
Cu      11.35359808       6.08496003      13.93946703
Cu       9.09315163       4.05304733      18.56973347
Cu       9.09065769       6.09742613      20.89879737
Cu      11.33778934       4.04357005      20.91649455
Cu      11.34684707       6.10129511      18.59021539
Cu       9.06874552       8.13334049       0.01269079
Cu       9.07454532      10.13787829       2.32832686
Cu      11.37047396       8.13171729       2.30891891
Cu      11.35724573      10.14966321      -0.00747534
Cu       9.09924220       8.12128817       4.65158224
Cu       9.09201933      10.15178647       6.96166880
Cu      11.35313421       8.09978436       6.94932784
Cu      11.35296233      10.14250094       4.63244628
Cu       9.08009950       8.12464757       9.28647209
Cu       9.07723032      10.15557645      11.61671975
Cu      11.35588006       8.11969041      11.61295492
Cu      11.36090033      10.16524932       9.27498987
Cu       9.08246877       8.13475549      13.91463288
Cu       9.08326935      10.16587801      16.24036990
Cu      11.35655677       8.12037801      16.24608528
Cu      11.36783160      10.15366184      13.93947436
Cu       9.08201866       8.12930289      18.58968449
Cu       9.09254554      10.15120067      20.90410024
Cu      11.33916078       8.12374741      20.91851467
Cu      11.34828050      10.14502357      18.59042315
Cu       9.08123761      12.17273488      -0.03057539
Cu       9.07945229      14.20838123       2.32699822
Cu      11.37100133      12.16988108       2.32242888
Cu      11.34868876      14.20668325      -0.00771389
Cu       9.06794910      12.16868134       4.62920645
Cu       9.09401989      14.21028716       6.96179780
Cu      11.37050672      12.18815784       6.96826837
Cu      11.34879026      14.22697522       4.65326625
Cu       9.08950636      12.17512467       9.29885432
Cu       9.07188963      14.19999725      11.60978271
Cu      11.36704867      12.18479485      11.61542387
Cu      11.34793816      14.19573418       9.30780418
Cu       9.08149961      12.17382392      13.93168485
Cu       9.10338812      14.20198845      16.24608327
Cu      11.35516004      12.19314042      16.26460002
Cu      11.35838730      14.20679515      13.94758317
Cu       9.09629185      12.18764444      18.58173201
Cu       9.09371346      14.20228966      20.89839540
Cu      11.33868197      12.18367507      20.89800482
Cu      11.34585621      14.22050303      18.58648885
Cu       9.07622455      16.23851805       0.01221106
Cu       9.08046378      18.27419804       2.31562528
Cu      11.35241577      16.23741659       2.33217225
Cu      11.35376016      18.27065865       0.01212529
Cu       9.07858308      16.23635811       4.64429078
Cu       9.08510384      18.29969386       6.96549453
Cu      11.35698706      16.25001735       6.96088905
Cu      11.35538374      18.28552330       4.64541576
Cu       9.07101525      16.24055734       9.29936347
Cu       9.07861527      18.28927200      11.62336276
Cu      11.36878053      16.24114781      11.60516871
Cu      11.38022700      18.28144100       9.30482456
Cu       9.08445226      16.26195164      13.93612414
Cu       9.08150245      18.26971807      16.28232699
Cu      11.34028285      16.24667386      16.25867796
Cu      11.34186385      18.27241653      13.92758682
Cu       9.08006505      16.23575848      18.57643428
Cu       9.08805860      18.29202299      20.91025671
Cu      11.36103320      16.23708409      20.90438933
Cu      11.35200035      18.26153185      18.59279096
Cu      13.64290789       0.00120627      -0.01608328
Cu      13.62227235       2.02718036       2.32762187
Cu      15.88265257       0.01794639       2.33505953
Cu      15.90484702       2.02385124       0.00123413
Cu      13.61989788      -0.00421050       4.65828005
Cu      13.64135485       2.02240382       6.97571915
Cu      15.88486001       0.00373795       6.96921168
Cu      15.89365184       2.03276197       4.63854658
Cu      13.62660977      -0.00170517       9.28701275
Cu      13.63477487       2.01178792      11.59638418
Cu      15.89225627       0.01069476      11.60170531
Cu      15.91202218       2.03682247       9.28045676
Cu      13.63460567       0.00227228      13.92830424
Cu      13.62979650       2.02917012      16.25599740
Cu      15.88470408      -0.00549354      16.26937569
Cu      15.89280973       2.02258117      13.94805262
Cu      13.62531061      -0.00204229      18.59907706
Cu      13.64392029       2.02362840      20.90625648
Cu      15.88362075      -0.00436540      20.90772208
Cu      15.89519421       2.03937182      18.59093646
Cu      13.63092090       4.05993157       0.00344596
Cu      13.60266957       6.07128182       2.30265039
Cu      15.88731337       4.05904686       2.33992721
Cu      15.91191511       6.08096140       0.01063211
Cu      13.64059741       4.06782947       4.62294048
Cu      13.63791964       6.09527864       6.94927159
Cu      15.90033189       4.05959381       6.95699573
Cu      15.89465668       6.09051814       4.64750504
Cu      13.62389904       4.05277135       9.28746649
Cu      13.63919531       6.10352123      11.61109315
Cu      15.89532044       4.08280470      11.61011197
Cu      15.90293855       6.09820266       9.28143767
Cu      13.62709628       4.04871682      13.93471893
Cu      13.63364713       6.07656716      16.25557632
Cu      15.89788514       4.05791687      16.25667497
Cu      15.87366012       6.09620234      13.95870708
Cu      13.62341926       4.05791003      18.59089251
Cu      13.63469697       6.08441603      20.90701297
Cu      15.90326565       4.06834760      20.90063138
Cu      15.89972677       6.08716000      18.56497843
Cu      13.62082370       8.12638070       0.01316715
Cu      13.63449412      10.14293979       2.34297507
Cu      15.90126371       8.11521497       2.33669747
Cu      15.90122134      10.12934984       0.00910767
Cu      13.64853223       8.10410312       4.65552535
Cu      13.63359714      10.15077049       6.96843471
Cu      15.89190828       8.10848042       6.98309485
Cu      15.89652498      10.17558296       4.64616854
Cu      13.61084511       8.12395371       9.28391537
Cu      13.62626567      10.16784624      11.60886663
Cu      15.88935906       8.13196322      11.62652187
Cu      15.89179012      10.16706357       9.30238966
Cu      13.61782198       8.12429996      13.94025407
Cu      13.62662665      10.15048373      16.26021614
Cu      15.91577597       8.11028687      16.28025748
Cu      15.90032269      10.13919869      13.94972834
Cu      13.63753359       8.13033770      18.57586037
Cu      13.62650457      10.15808565      20.90902030
Cu      15.89496926       8.13814251      20.89788099
Cu      15.92198737      10.14218135      18.59100951
Cu      13.60841457      12.19677753      -0.01067727
Cu      13.62719572      14.21182077       2.32528181
Cu      15.89937319      12.17395589       2.29956763
Cu      15.90143393      14.21564991       0.00622081
Cu      13.65032780      12.18144986       4.65577492
Cu      13.61051876      14.19509884       6.95348375
Cu      15.90326654      12.19279818       6.97025534
Cu      15.89466671      14.22697013       4.64916811
Cu      13.61216193      12.19242582       9.29845078
Cu      13.62113217      14.21438707      11.60198270
Cu      15.91418781      12.18716743      11.60854683
Cu      15.90402160      14.21729241       9.28785751
Cu      13.62150398      12.16659046      13.91549051
Cu      13.60781131      14.22519383      16.26993836
Cu      15.90530887      12.16549232      16.24224227
Cu      15.89731018      14.20599412      13.95604223
Cu      13.62728448      12.17897781      18.57101827
Cu      13.62774195      14.21105292      20.90119850
Cu      15.88502903      12.18211919      20.89309681
Cu      15.90583489      14.20863078      18.57867586
Cu      13.62923275      16.25323512      -0.00898921
Cu      13.62544920      18.27488434       2.31612411
Cu      15.90521558      16.24366466       2.33873389
Cu      15.89745539      18.29736256       0.00383591
Cu      13.61756074      16.23901911       4.65132660
Cu      13.60504715      18.26861133       6.96282568
Cu      15.90378508      16.24031315       6.96640617
Cu      15.91068347      18.25491409       4.62975154
Cu      13.62452293      16.23300665       9.28886348
Cu      13.63408584      18.27716052      11.61470951
Cu      15.89165480      16.23315683      11.62691441
Cu      15.88692010      18.26140792       9.29143924
Cu      13.61807804      16.24431940      13.92728781
Cu      13.63672597      18.25525138      16.25580186
Cu      15.89790690      16.22071361      16.28394041
Cu      15.89153801      18.28516579      13.92212249
Cu      13.61474913      16.25551577      18.59234385
Cu      13.61526829      18.28848035      20.88760853
Cu      15.88327498      16.24877379      20.89200527
Cu      15.90383758      18.26718775      18.57417804
Cu      18.18686038      -0.00408948       0.01624883
Cu      18.17994849       2.02624681       2.31760977
Cu      20.44604474       0.01220746       2.31638171
Cu      20.43050618       2.02401616       0.00498856
Cu      18.18101311      -0.00642958       4.64223028
Cu      18.14741018       2.02418766       6.97521444
Cu      20.43136879       0.00962798       6.97311680
Cu      20.44047057       2.02993866       4.64012457
Cu      18.17279678       0.00804216       9.29358626
Cu      18.14618969       2.04620244      11.59002796
Cu      20.42941799      -0.00505892      11.60383381
Cu      20.44535616       2.02494106       9.28338926
Cu      18.18603031      -0.02689374      13.92362282
Cu      18.16597471       2.03515818      16.26553495
Cu      20.44301738       0.00326235      16.26223974
Cu      20.44306521       2.04521994      13.95250195
Cu      18.16481490       0.00843107      18.58092631
Cu      18.16136333       2.01623874      20.89227523
Cu      20.43880702      -0.01816328      20.87910701
Cu      20.43374909       2.03645664      18.56220276
Cu      18.15562204       4.06224673       0.00729662
Cu      18.18221531       6.08718474       2.31309247
Cu      20.44884297       4.05834965       2.31845331
Cu      20.44999182       6.10995899       0.00457734
Cu      18.16643697       4.07097664       4.64187098
Cu      18.18088850       6.09074682       6.96639870
Cu      20.41974025       4.06157384       6.94513432
Cu      20.43428717       6.08588920       4.64396564
Cu      18.16052555       4.06997843       9.29527797
Cu      18.17408333       6.08162383      11.61058427
Cu      20.44630266       4.03081335      11.61660742
Cu      20.44943726       6.08054331       9.29174204
Cu      18.16308725       4.05830386      13.93362887
Cu      18.16583938       6.07176584      16.25509094
Cu      20.43697486       4.05874612      16.27465057
Cu      20.44513717       6.09917269      13.91705304
Cu      18.16837058       4.04898516      18.56745141
Cu      18.17121926       6.09558544      20.91175188
Cu      20.43628313       4.07500005      20.91427431
Cu      20.45310720       6.08218842      18.58032891
Cu      18.17379812       8.12105708      -0.00383934
Cu      18.15707452      10.14674218       2.32096816
Cu      20.43446761       8.12086406       2.32706930
Cu      20.44964632      10.15766787       0.01607940
Cu      18.15761554       8.09927157       4.64652041
Cu      18.16281927      10.14103147       6.96694810
Cu      20.43507353       8.11652519       6.95384414
Cu      20.44474357      10.13869034       4.64914145
Cu      18.16874023       8.11526845       9.28038175
Cu      18.19008364      10.15367397      11.60326105
Cu      20.44120106       8.10837446      11.60688327
Cu      20.45872732      10.16205517       9.28601360
Cu      18.16499165       8.12047868      13.94563440
Cu      18.16670925      10.14517977      16.26445051
Cu      20.44086013       8.13385783      16.26187098
Cu      20.43620783      10.14913863      13.93432742
Cu      18.17695160       8.11512972      18.57057952
Cu      18.18329176      10.16054236      20.90233142
Cu      20.42758509       8.11156322      20.89366935
Cu      20.44466455      10.14763307      18.57027190
Cu      18.16356588      12.16840999       0.01416611
Cu      18.18547395      14.21268251       2.31890143
Cu      20.43229432      12.18402695       2.31983086
Cu      20.43681470      14.21326175      -0.01113357
Cu      18.17196232      12.18986854       4.63943612
Cu      18.15541386      14.22878266       6.95728327
Cu      20.43098296      12.17636293       6.95398827
Cu      20.43745119      14.19575836       4.64124406
Cu      18.17925076      12.18897470       9.29295053
Cu      18.15531193      14.21840646      11.59336223
Cu      20.43758744      12.18521046      11.61423930
Cu      20.44134390      14.19566382       9.31039894
Cu      18.17043992      12.19056253      13.93611569
Cu      18.16743851      14.20295437      16.26703477
Cu      20.45491897      12.16308245      16.23933998
Cu      20.45564637      14.21036711      13.94619635
Cu      18.15707175      12.16778478      18.58972528
Cu      18.16255448      14.22898367      20.91212451
Cu      20.43398116      12.17955942      20.89422119
Cu      20.43813421      14.21649962      18.59516850
Cu      18.17150985      16.24738438      -0.01205585
Cu      18.17525862      18.26554185       2.32184956
Cu      20.43761762      16.25308656       2.31983961
Cu      20.44703125      18.26496385      -0.01726442
Cu      18.16687510      16.23574473       4.66204009
Cu      18.17163547      18.27285779       6.98071159
Cu      20.43126759      16.26628916       6.98120770
Cu      20.43192221      18.25044704       4.66618671
Cu      18.16516896      16.24085167       9.29647227
Cu      18.16409401      18.27452540      11.62582035
Cu      20.44579629      16.23708194      11.59769751
Cu      20.42441605      18.25914108       9.30118472
Cu      18.17650032      16.24933299      13.92839721
Cu      18.16876524      18.28341048      16.25016727
Cu      20.44070880      16.24227507      16.26390260
Cu      20.43872143      18.26879940      13.92026107
Cu      18.17995983      16.25497439      18.58425965
Cu      18.17170610      18.26762141      20.89180626
Cu      20.43926779      16.23639277      20.89189874
Cu      20.42545109      18.27053534      18.57426050
