256
Lattice="17.423952213497998 0.0 0.0 0.0 17.759028924951576 0.0 0.0 0.0 15.092320322143454" Properties=species:S:1:pos:R:3 id=sample_000465 pbc="F F F"
Cu      -0.00788067      -0.01737606      -0.00880989
Cu       0.00438210       2.20382744       1.88396129
Cu       2.17989947      -0.00943232       1.87955512
Cu       2.17709017       2.22222745       0.01837403
Cu      -0.03811665       0.00878621       3.77287808
Cu      -0.00693914       2.21534416       5.67180897
Cu       2.18498537       0.00430245       5.68265915
Cu       2.16410193       2.20207880       3.79048261
Cu      -0.00007043       0.01758787       7.54217525
Cu      -0.00043578       2.24609058       9.40675525
Cu       2.15275299      -0.01749943       9.42121962
Cu       2.20077905       2.21934872       7.53282862
Cu      -0.00987640      -0.00229107      11.29507166
Cu      -0.00175150       2.21691195      13.23219103
Cu       2.19466570       0.02193663      13.20082323
Cu       2.15475778       2.23448492      11.33470899
Cu       0.00645799       4.45019145      -0.01169884
Cu      -0.02182206       6.65735401       1.89976919
Cu       2.17819310       4.44748106       1.89015761
Cu       2.16546826       6.66068845      -0.01250200
Cu       0.00957882       4.45759950       3.75438045
Cu       0.00911629       6.68172183       5.64350868
Cu       2.16564393       4.43532910       5.67058561
Cu       2.16281924       6.66423512       3.74675714
Cu       0.00494602       4.42941476       7.54488979
Cu       0.01628498       6.64180684       9.46279660
Cu       2.15999138       4.45812428       9.46031804
Cu       2.18454975       6.64956089       7.53943658
Cu      -0.01753317       4.42619045      11.33017279
Cu       0.02543451       6.65687779      13.20059936
Cu       2.17820648       4.45214946      13.19841568
Cu       2.18600245       6.67234897      11.29424511
Cu       0.02627775       8.87760011       0.00910044
Cu       0.02123800      11.10215590       1.88469985
Cu       2.20481083       8.90144594       1.88351555
Cu       2.16883475      11.08321430      -0.00210515
Cu       0.02141090       8.88349152       3.79226509
Cu      -0.00593868      11.11458368       5.64588663
Cu       2.19551585       8.89115497       5.66088817
Cu       2.18236504      11.06056960       3.79709522
Cu       0.03100349       8.88112744       7.55482008
Cu      -0.00277348      11.08343837       9.43034189
Cu       2.19040885       8.88502606       9.42069371
Cu       2.20491011      11.10539072       7.55258867
Cu       0.00205520       8.90151892      11.32587871
Cu      -0.00004497      11.08778195      13.19837867
Cu       2.20138042       8.88955148      13.21472754
Cu       2.17842931      11.08639159      11.32679889
Cu      -0.00686788      13.31511680       0.00238948
Cu      -0.02271902      15.56472930       1.87618852
Cu       2.18728229      13.32012099       1.89807640
Cu       2.16776664      15.54374201       0.00166311
Cu       0.01604243      13.32988782       3.77455259
Cu       0.00922357      15.55061052       5.68260518
Cu       2.19051744      13.31062063       5.67431815
Cu       2.16969373      15.53647665       3.76256722
Cu       0.00440801      13.33217239       7.53407654
Cu       0.00056670      15.53629816       9.41746552
Cu       2.18103774      13.33113901       9.44206686
Cu       2.18961808      15.55336602       7.52760122
Cu      -0.01151613      13.32200619      11.33888322
Cu      -0.02338375      15.54749144      13.21829866
Cu       2.14611619      13.31526640      13.19714176
Cu       2.17512819      15.54755216      11.32297408
Cu       4.35780676      -0.00012047      -0.00030422
Cu       4.35192867       2.23044757       1.91395050
Cu       6.53346098       0.00893572       1.87582051
Cu       6.52478182       2.22797134      -0.00148887
Cu       4.35599317      -0.03126813       3.81820178
Cu       4.33940307       2.20390756       5.68996227
Cu       6.53113910      -0.01587928       5.64956991
Cu       6.54128440       2.21398842       3.77537960
Cu       4.34576194      -0.00077079       7.54149988
Cu       4.38689048       2.20340640       9.42183404
Cu       6.51623274       0.00888085       9.42090802
Cu       6.51535566       2.23334472       7.55519378
Cu       4.36490667       0.00825240      11.32196402
Cu       4.35049910       2.21100511      13.20493507
Cu       6.52906628       0.00426955      13.19647002
Cu       6.54054881       2.22254034      11.31333206
Cu       4.34802459       4.43374848      -0.00129811
Cu       4.35343270       6.65235866       1.91129456
Cu       6.53490857       4.45068480       1.85325722
Cu       6.54730863       6.66621026      -0.00197274
Cu       4.37556828       4.43676918       3.76988794
Cu       4.33733967       6.65931536       5.66968871
Cu       6.51953714       4.43380471       5.66384691
Cu       6.53210241       6.65225673       3.79286190
Cu       4.36990953       4.42313864       7.57938868
Cu       4.37278496       6.64888482       9.45641301
Cu       6.54819470       4.40651511       9.44107159
Cu       6.55129614       6.67635156       7.55413349
Cu       4.36776502       4.45882182      11.31276162
Cu       4.32873035       6.65616621      13.20483566
Cu       6.53717730       4.40630628      13.20315376
Cu       6.52357413       6.66827542      11.32670169
Cu       4.36525653       8.87530715       0.00388089
Cu       4.35486710      11.09932470       1.86708272
Cu       6.53504761       8.85184379       1.90695514
Cu       6.53981259      11.09367789      -0.00101931
Cu       4.34859201       8.86534529       3.78388382
Cu       4.36536641      11.07980137       5.66938384
Cu       6.55759361       8.85367069       5.64191570
Cu       6.52018810      11.09946871       3.77188822
Cu       4.37182929       8.86669446       7.51372887
Cu       4.36427721      11.09514346       9.43312532
Cu       6.54791028       8.87281487       9.40478999
Cu       6.51122742      11.09982993       7.56357858
Cu       4.34856447       8.88433026      11.30883949
Cu       4.35227784      11.10588741      13.20940780
Cu       6.52095680       8.87607419      13.20400147
Cu       6.51858547      11.10449506      11.33894455
Cu       4.35084251      13.30987955       0.00125019
Cu       4.36304057      15.52899858       1.89945355
Cu       6.53119640      13.33324785       1.86590468
Cu       6.50887301      15.54393811      -0.01108123
Cu       4.37932932      13.31677598       3.74803736
Cu       4.36082245      15.52909670       5.66332280
Cu       6.52785606      13.32565293       5.67023532
Cu       6.54235187      15.55473766       3.79364485
Cu       4.35903539      13.30518852       7.55020759
Cu       4.36796437      15.53180702       9.41425546
Cu       6.52952932      13.31691875       9.43801123
Cu       6.52217495      15.53109484       7.54857698
Cu       4.37175836      13.31841458      11.31567410
Cu       4.36579036      15.53403736      13.21604125
Cu       6.54168983      13.30533469      13.22208241
Cu       6.53297009      15.56863794      11.32228562
Cu       8.72990575      -0.01117724       0.00689419
Cu       8.70908016       2.22446218       1.88057174
Cu      10.89449242       0.02857657       1.87569252
Cu      10.88696860       2.22509736       0.00216772
Cu       8.71846591      -0.01260631       3.76850582
Cu       8.71507039       2.21045979       5.66810724
Cu      10.88885441       0.01149100       5.67195261
Cu      10.89255989       2.23884492       3.79907556
Cu       8.71827751       0.00781732       7.54819127
Cu       8.69255472       2.21567910       9.44543150
Cu      10.88676424       0.00007497       9.42152135
Cu      10.89714832       2.20715511       7.54875161
Cu       8.70992804       0.01388702      11.32086935
Cu       8.71844426       2.20928226      13.21989308
Cu      10.91777201      -0.00755196      13.22122948
Cu      10.89469499       2.21528807      11.28790241
Cu       8.70016549       4.43302959       0.00863419
Cu       8.71360102       6.63363749       1.87815252
Cu      10.87957766       4.43289852       1.85921800
Cu      10.88489211       6.63450776       0.00302996
Cu       8.70442988       4.42005646       3.77444361
Cu       8.72903950       6.65712361       5.64676634
Cu      10.86935706       4.44257131       5.66465307
Cu      10.90016904       6.63764752       3.76040579
Cu       8.72386207       4.44770193       7.54734040
Cu       8.72633816       6.62392131       9.40690566
Cu      10.89113331       4.46786328       9.43286524
Cu      10.89949684       6.65231183       7.52356434
Cu       8.68914871       4.45014359      11.33035583
Cu       8.71581877       6.66287372      13.19486483
Cu      10.88300298       4.44185278      13.19116197
Cu      10.91066836       6.67008506      11.32721036
Cu       8.70813057       8.89674468      -0.00801965
Cu       8.71510240      11.12277459       1.87056196
Cu      10.89314375       8.87127959       1.89004079
Cu      10.88981948      11.08197860      -0.02560947
Cu       8.70714132       8.87217941       3.77152062
Cu       8.71372327      11.10198635       5.66413967
Cu      10.87202338       8.88298318       5.66141867
Cu      10.88757324      11.11026935       3.80340659
Cu       8.71471391       8.86553926       7.54572104
Cu       8.70084276      11.08728757       9.43503985
Cu      10.88723664       8.85473717       9.42797141
Cu      10.89619746      11.09457496       7.53312748
Cu       8.71503080       8.87282574      11.31659696
Cu       8.72534628      11.09730810      13.22841025
Cu      10.89711957       8.88413429      13.20618995
Cu      10.90077878      11.09545527      11.33229621
Cu       8.71875804      13.30724902       0.00229926
Cu       8.71978413      15.53699639       1.90364363
Cu      10.88465600      13.31735820       1.88742421
Cu      10.88909761      15.55697224      -0.01280345
Cu       8.71196044      13.31763274       3.77444576
Cu       8.69853709      15.52562894       5.67411348
Cu      10.88435972      13.32466506       5.64748676
Cu      10.88242828      15.50826776       3.76975798
Cu       8.72626937      13.31285300       7.56065902
Cu       8.72122546      15.53845515       9.43615603
Cu      10.89032572      13.32094606       9.42607983
Cu      10.90871728      15.53033866       7.55453319
Cu       8.70717546      13.32238776      11.32370936
Cu       8.69036547      15.55859274      13.22493657
Cu      10.91601672      13.31464360      13.19807063
Cu      10.91130762      15.54931830      11.31839059
Cu      13.06972602      -0.00616691       0.03255406
Cu      13.06145730       2.21744032       1.90248489
Cu      15.27872256       0.00752750       1.88747398
Cu      15.23457865       2.24065260       0.00041981
Cu      13.07624286       0.01160504       3.78084986
Cu      13.07462981       2.21888721       5.66887026
Cu      15.24927833       0.01234753       5.68282358
Cu      15.24939089       2.20993466       3.79888691
Cu      13.07301011      -0.00696131       7.55731655
Cu      13.05779343       2.21060716       9.43816847
Cu      15.25638151      -0.00666959       9.42141283
Cu      15.25204134       2.20262345       7.55208656
Cu      13.04685057       0.02379609      11.32617981
Cu      13.09837985       2.21282144      13.20357730
Cu      15.23906178      -0.02163133      13.20907999
Cu      15.23274234       2.18702108      11.32499927
Cu      13.07374287       4.45001855      -0.00146444
Cu      13.08434706       6.68162074       1.87565895
Cu      15.24973232       4.42461197       1.89916128
Cu      15.27181170       6.62184250       0.00374578
Cu      13.06252824       4.46140030       3.76210083
Cu      13.06840768       6.63408773       5.65506411
Cu      15.23749126       4.44889386       5.66202180
Cu      15.26979900       6.67038272       3.76698796
Cu      13.06835428       4.44747690       7.54657435
Cu      13.03942156       6.64845706       9.40291195
Cu      15.26292516       4.42263567       9.44560514
Cu      15.24682089       6.67130955       7.55517706
Cu      13.05420451       4.45585218      11.29880085
Cu      13.07919513       6.68412698      13.22227080
Cu      15.26444543       4.44960102      13.22336373
Cu      15.24911961       6.68316804      11.30543396
Cu      13.05941801       8.89118927      -0.02451672
Cu      13.06782575      11.09963896       1.89057274
Cu      15.23575920       8.87430460       1.86867539
Cu      15.24031923      11.09657920       0.01488936
Cu      13.05587128       8.87727607       3.75624910
Cu      13.06471015      11.09258447       5.67909091
Cu      15.23492375       8.87308761       5.67389115
Cu      15.26344157      11.12297591       3.77379255
Cu      13.07841199       8.87568098       7.55504636
Cu      13.08664411      11.10796863       9.44358197
Cu      15.23641433       8.91018118       9.43127031
Cu      15.24676428      11.10576147       7.52583827
Cu      13.07859751       8.89255230      11.29816363
Cu      13.06713873      11.10687452      13.21030730
Cu      15.22531778       8.87044597      13.20264584
Cu      15.23527478      11.09762468      11.32307272
Cu      13.07444794      13.31180707      -0.01711183
Cu      13.07352247      15.52142492       1.87342987
Cu      15.24631165      13.31014899       1.86286095
Cu      15.24404587      15.54639659       0.00455477
Cu      13.06654831      13.34015686       3.75629665
Cu      13.07856032      15.52664632       5.64159207
Cu      15.24640981      13.33669735       5.67093763
Cu      15.26056960      15.54430309       3.78059741
Cu      13.04971130      13.34514276       7.54374866
Cu      13.04400868      15.53277677       9.45225159
Cu      15.23177291      13.30242599       9.43415522
Cu      15.21190743      15.54314017       7.55647885
Cu      13.07085827      13.34239735      11.31732933
Cu      13.08520008      15.54908920      13.21389758
Cu      15.27809030      13.31727557      13.20299676
Cu      15.23249178      15.56738467      11.35979705
