398
Lattice="67.44252841414885 0.0 0.0 0.0 67.44252841414885 0.0 0.0 0.0 67.44252841414885" Properties=species:S:1:pos:R:3 id=sample_000415 pbc="T T T"
Si      21.24443685      21.26400470      21.27670051
Si      22.60757023      22.64810600      22.63289136
Si      23.97336540      24.00022021      21.25345792
Si      25.35650668      25.35023229      22.62682175
Si      26.68842239      26.69295596      21.27983079
Si      28.05783103      28.07427356      22.63858487
Si      29.39343423      29.41558016      21.26455611
Si      30.77079928      30.76626967      22.61246585
Si      32.12606654      32.14832376      21.26786147
Si      33.48070397      33.50871184      22.63211235
Si      34.84428904      34.84633112      21.28809425
Si      36.18640668      36.23032150      22.63694380
Si      37.58027290      37.57783763      21.25588804
Si      38.91285110      38.91955660      22.66216500
Si      40.25336788      40.25220695      21.27451156
Si      41.64506660      41.63608878      22.64019812
Si      43.00934410      43.01592316      21.27620921
Si      23.98106723      21.27508673      23.98405667
Si      25.35232654      22.63080179      25.35431466
Si      26.68851571      23.96319813      23.99788164
Si      28.09859409      25.33774656      25.33369245
Si      29.44155929      26.72673515      24.00138351
Si      30.76662537      28.04674355      25.34880247
Si      32.12677349      29.43534226      23.99912755
Si      33.48187893      30.78137046      25.33962478
Si      34.85685649      32.12869311      23.97645163
Si      36.18301541      33.48753208      25.33601712
Si      37.54555379      34.83725610      23.98428995
Si      38.92106761      36.18935662      25.33358406
Si      40.28797251      37.57713890      23.98639261
Si      41.62474731      38.94128294      25.34260146
Si      43.00679597      40.28879745      23.96398173
Si      44.36536692      41.63101401      25.34536097
Si      26.70753727      21.26745490      26.69252658
Si      28.08478666      22.64463597      28.05920763
Si      29.41213218      23.98570061      26.70670045
Si      30.80393688      25.31503135      28.07857283
Si      32.14728238      26.72115626      26.70795996
Si      33.47091914      28.06012256      28.04219717
Si      34.84735511      29.43452990      26.71537663
Si      36.22808465      30.78649587      28.07098338
Si      37.59481301      32.13718786      26.71893203
Si      38.94749338      33.50852184      28.06823527
Si      40.25917606      34.82415193      26.70221669
Si      41.66202572      36.20207725      28.05231425
Si      42.99521955      37.56807188      26.69123080
Si      44.38577062      38.92696213      28.04732509
Si      45.70207542      40.29414969      26.72114681
Si      29.40630768      21.27271616      29.42426548
Si      30.75474151      22.63668883      30.78093782
Si      32.12193772      23.99483857      29.42559500
Si      33.48555249      25.32806017      30.78821543
Si      34.85386306      26.70168036      29.39606487
Si      36.22225771      28.05025305      30.77885036
Si      37.55083454      29.42212158      29.41004585
Si      38.90002992      30.77080473      30.76536174
Si      40.26095771      32.11957849      29.42935068
Si      41.63886563      33.51138635      30.77437448
Si      42.98244132      34.85189759      29.42097429
Si      44.36510398      36.19118995      30.76112146
Si      45.70831867      37.57549320      29.42534235
Si      32.13288379      21.26580036      32.13794552
Si      33.49757619      22.64031669      33.48344402
Si      34.85426185      24.00579186      32.12322354
Si      36.20982910      25.35172371      33.47989125
Si      37.52112122      26.70667672      32.16365474
Si      38.93008198      28.06973144      33.49316147
Si      40.26650747      29.42199487      32.13265575
Si      41.65648061      30.76413529      33.50615123
Si      42.97325136      32.13887580      32.14142528
Si      44.35759093      33.48932227      33.50058550
Si      45.68101395      34.83796423      32.12464832
Si      34.84248974      21.28137462      34.83619802
Si      36.20887027      22.62525501      36.21434737
Si      37.57078026      23.97460250      34.83823842
Si      38.93021759      25.35778601      36.21493540
Si      40.28773246      26.71060051      34.84848810
Si      41.63201202      28.05825564      36.22758619
Si      42.98849291      29.45047390      34.87130684
Si      44.33190314      30.75404289      36.22966444
Si      45.73213805      32.16525562      34.85778115
Si      37.53408166      21.26889472      37.57453622
Si      38.92996450      22.63554880      38.93942388
Si      40.26070750      23.96015656      37.55183263
Si      41.64381162      25.34555702      38.92925259
Si      43.00948017      26.71695562      37.58244763
Si      44.35775486      28.05799374      38.93161149
Si      45.70580206      29.41419803      37.58627223
Si      40.26963099      21.30097140      40.25126029
Si      41.61426994      22.60716712      41.61094568
Si      42.99841753      24.00794266      40.27715244
Si      44.35094569      25.36491967      41.63266800
Si      45.73397878      26.73410957      40.28232521
Si      42.99414353      21.27128815      42.98288397
Si      21.27759120      23.99474675      23.97992111
Si      22.62409816      25.33884388      25.33165507
Si      23.99452664      26.68877127      23.98986668
Si      25.34530789      28.07195059      25.33726188
Si      26.70147698      29.41904655      24.01308468
Si      28.05560293      30.78240497      25.34615042
Si      29.40002486      32.13499894      23.99173396
Si      30.77508151      33.48891496      25.37402006
Si      32.13993232      34.83483671      23.98381889
Si      33.49328040      36.19153934      25.35046052
Si      34.86610046      37.58409734      23.96105792
Si      36.21123182      38.94429512      25.33021437
Si      37.56226077      40.26447085      23.98073966
Si      38.92116300      41.64341209      25.34658150
Si      40.28157881      43.01357857      23.97639433
Si      41.63678664      44.34603036      25.32806120
Si      23.96851810      24.00075884      26.70752296
Si      25.35077226      25.34687503      28.05947891
Si      26.71827356      26.71665325      26.70217964
Si      28.06394493      28.04884521      28.08030752
Si      29.40845627      29.45011919      26.72443014
Si      30.78229737      30.76623167      28.05264616
Si      32.15128763      32.14077837      26.68929291
Si      33.47585684      33.50981929      28.03751099
Si      34.85101774      34.86501037      26.73179332
Si      36.18517722      36.25818195      28.06828217
Si      37.56277742      37.54023528      26.69986978
Si      38.90827221      38.89514244      28.07494539
Si      40.29955218      40.27249675      26.69641499
Si      41.62422566      41.63752719      28.08662689
Si      43.01152107      42.99299623      26.70539369
Si      26.70412658      24.02200042      29.42290642
Si      28.05445595      25.35035522      30.81748255
Si      29.41785999      26.69962194      29.39603413
Si      30.77799051      28.06057880      30.77539609
Si      32.14347863      29.40993033      29.41644358
Si      33.48124132      30.79084787      30.78303096
Si      34.85400874      32.12960379      29.42143555
Si      36.22653357      33.47862075      30.80941284
Si      37.56959132      34.86628931      29.42590580
Si      38.93434091      36.21759152      30.76281614
Si      40.27474660      37.56084056      29.43056778
Si      41.63287608      38.90267526      30.76776046
Si      42.98987919      40.28487811      29.41883279
Si      29.40166948      23.97074063      32.14652965
Si      30.77970983      25.34583155      33.46113395
Si      32.13294836      26.68194354      32.16868284
Si      33.43754482      28.05371092      33.49535908
Si      34.86244007      29.41082912      32.11915708
Si      36.21783079      30.77366988      33.51276234
Si      37.57772721      32.12801185      32.12570632
Si      38.89930497      33.49649797      33.47970614
Si      40.27779668      34.85669214      32.10785338
Si      41.65588792      36.20769433      33.51500213
Si      42.97408176      37.59252354      32.13463051
Si      44.33904087      38.91350874      33.48784488
Si      32.12385593      23.96683547      34.85348701
Si      33.49523812      25.35994944      36.21925598
Si      34.86099836      26.68780209      34.86585186
Si      36.21816712      28.06514785      36.20187862
Si      37.57525197      29.42672526      34.84614409
Si      38.92818826      30.76383017      36.22327434
Si      40.27359987      32.14492121      34.83489898
Si      41.65611594      33.49479104      36.21000993
Si      42.99758128      34.85166512      34.82103458
Si      44.32910793      36.22998213      36.22283241
Si      34.85669234      23.96677616      37.56741577
Si      36.20740312      25.35319091      38.93750885
Si      37.56400702      26.69651211      37.59354077
Si      38.93325448      28.05686355      38.93128137
Si      40.28237880      29.42999219      37.55463677
Si      41.63094425      30.80226667      38.93179513
Si      43.00324240      32.14468770      37.58196187
Si      44.34698661      33.49791998      38.92904180
Si      37.55364063      23.96871322      40.28285362
Si      38.93015390      25.32508546      41.64268752
Si      40.28176853      26.71309141      40.27939747
Si      41.63845601      28.06182067      41.66142161
Si      42.98421154      29.41665132      40.27392809
Si      40.27339292      23.99706119      42.98999948
Si      41.61372819      25.33929142      44.32083851
Si      42.98521543      26.71714726      43.01297379
Si      21.27351714      26.72352135      26.70366540
Si      22.63321402      28.06959815      28.08735922
Si      23.97068022      29.42678089      26.71107898
Si      25.35919413      30.79353930      28.05538946
Si      26.70672675      32.12455379      26.72136818
Si      28.05876164      33.48543699      28.05906737
Si      29.39578300      34.82587502      26.70214282
Si      30.76623646      36.20155257      28.04268197
Si      32.14163422      37.57416501      26.68435075
Si      33.48925315      38.93034946      28.05031496
Si      34.84647443      40.28278678      26.69994845
Si      36.21746811      41.65336436      28.08978058
Si      37.55573577      43.00233386      26.72945078
Si      38.94892712      44.37365579      28.06890475
Si      40.28955551      45.71090346      26.68392176
Si      24.00942272      26.69035862      29.41386758
Si      25.35701234      28.05362008      30.79317864
Si      26.71145870      29.39934593      29.43720077
Si      28.06895534      30.76797326      30.76947502
Si      29.41225950      32.15101253      29.41882846
Si      30.77848723      33.48512778      30.76676694
Si      32.13015917      34.85602063      29.43139400
Si      33.48252592      36.19976031      30.77420935
Si      34.86674489      37.56795083      29.42134314
Si      36.20722571      38.93815031      30.77224131
Si      37.59098561      40.27730117      29.39656286
Si      38.92826909      41.64155702      30.75904275
Si      40.28183947      42.99661155      29.43768779
Si      26.69743289      26.69959419      32.13148959
Si      28.06158717      28.05866196      33.49702846
Si      29.41906729      29.40297198      32.10468294
Si      30.79366611      30.77561695      33.52262596
Si      32.15269157      32.13660121      32.13001804
Si      33.51789436      33.48311989      33.48270810
Si      34.84882226      34.86816780      32.15982155
Si      36.20677438      36.21627048      33.48849930
Si      37.55402900      37.58543370      32.12912565
Si      38.93652561      38.92453328      33.49560294
Si      40.28592977      40.30473009      32.11627360
Si      41.61661261      41.65619340      33.50081189
Si      29.43896547      26.71554446      34.83512031
Si      30.78788805      28.07039942      36.21893947
Si      32.11187875      29.43190664      34.85927584
Si      33.50130423      30.80523516      36.23282363
Si      34.86760642      32.10604594      34.85625906
Si      36.21724792      33.50693358      36.23387513
Si      37.55754849      34.85507791      34.83063886
Si      38.90571235      36.18840780      36.20389683
Si      40.27605841      37.54229512      34.85108233
Si      41.64086466      38.93691371      36.19901285
Si      32.15693130      26.67891228      37.57224067
Si      33.48417868      28.05347275      38.93061066
Si      34.84211438      29.42757340      37.57085300
Si      36.21149355      30.80440050      38.92266116
Si      37.55208436      32.12193208      37.58200738
Si      38.93034848      33.49294661      38.93309969
Si      40.28754920      34.83852535      37.56053315
Si      41.64745951      36.21852276      38.93090914
Si      42.98950745      37.57713541      37.57807447
Si      34.82037214      26.69244846      40.26106464
Si      36.21018863      28.05761950      41.63009003
Si      37.55700714      29.41422223      40.26451333
Si      38.92206033      30.75296951      41.64973653
Si      40.26237500      32.12161906      40.28276880
Si      41.65918180      33.46197053      41.67096134
Si      37.58157990      26.69536784      42.98871104
Si      38.92140911      28.04585194      44.36424619
Si      40.29975605      29.39872357      42.99412448
Si      40.25527350      26.70640471      45.71666669
Si      21.28131456      29.39960549      29.41739501
Si      22.64649486      30.78965554      30.78143337
Si      24.00550930      32.16070203      29.41818181
Si      25.33537168      33.48226333      30.75794955
Si      26.73018536      34.85431401      29.42979521
Si      28.06670970      36.19870123      30.78371015
Si      29.41320842      37.58271300      29.41628425
Si      30.77217263      38.93138592      30.76365479
Si      32.13302155      40.26878832      29.42570334
Si      33.50686665      41.63800366      30.75982118
Si      34.85404055      43.00939768      29.43729500
Si      36.18050501      44.36826896      30.78547107
Si      37.55312354      45.70461946      29.43596582
Si      23.98157691      29.42410239      32.13474760
Si      25.34505407      30.77717691      33.47393477
Si      26.70777520      32.15238848      32.15249514
Si      28.08868828      33.46333529      33.47174983
Si      29.43084542      34.83631798      32.13858900
Si      30.74762306      36.24014258      33.50550198
Si      32.13365212      37.58606514      32.14849632
Si      33.51377417      38.92018552      33.48583805
Si      34.83804980      40.28023535      32.13529646
Si      36.21105900      41.63456035      33.48128768
Si      37.54756526      43.00959065      32.13336804
Si      38.92221901      44.34614293      33.50715517
Si      26.71444517      29.41352695      34.85078285
Si      28.05902818      30.76297837      36.19427632
Si      29.42528021      32.11853398      34.82926598
Si      30.79222230      33.49832442      36.19663666
Si      32.12581081      34.84673435      34.88803786
Si      33.51429825      36.21209230      36.20874046
Si      34.82421037      37.58177965      34.84619040
Si      36.21582862      38.92959815      36.21111585
Si      37.56289214      40.28719565      34.85645075
Si      38.92572279      41.63242175      36.21521189
Si      29.40682842      29.42501996      37.56749792
Si      30.77269926      30.77511075      38.90919445
Si      32.12619590      32.14604777      37.56422456
Si      33.48277293      33.49815785      38.90553278
Si      34.84232239      34.86124879      37.58366826
Si      36.18572829      36.21378107      38.92556389
Si      37.55946494      37.57355368      37.55190866
Si      38.90921949      38.92315407      38.92655072
Si      40.27065165      40.27842258      37.57722965
Si      32.15891135      29.43043706      40.29253246
Si      33.49897156      30.76824830      41.62662339
Si      34.85548364      32.13833789      40.28911601
Si      36.21284807      33.49184045      41.63393173
Si      37.53893087      34.85438788      40.27348183
Si      38.93481626      36.20765540      41.64327366
Si      40.27186133      37.57135271      40.27719112
Si      34.86174173      29.42086703      43.00257072
Si      36.20637642      30.75023780      44.36532492
Si      37.55993541      32.14075887      43.00563855
Si      38.92720293      33.49918352      44.35725969
Si      37.58802990      29.42595645      45.70576824
Si      21.27871839      32.12404003      32.09613300
Si      22.63064762      33.49535731      33.50598485
Si      23.99039903      34.85382465      32.16087670
Si      25.33953462      36.22268875      33.51484905
Si      26.71992460      37.55466101      32.13401443
Si      28.07056516      38.92392420      33.46621255
Si      29.42602056      40.30065081      32.14907406
Si      30.76383419      41.66209233      33.50027523
Si      32.13158969      43.01033374      32.11379077
Si      33.50800053      44.35857219      33.49114442
Si      34.85615026      45.71328036      32.11885885
Si      23.99015951      32.14754702      34.86903621
Si      25.35167289      33.49600505      36.19171035
Si      26.69165401      34.84078825      34.84739814
Si      28.06173880      36.22969115      36.20939476
Si      29.43174934      37.55700681      34.84658390
Si      30.78307776      38.92770014      36.18902151
Si      32.13048161      40.31857422      34.85900184
Si      33.50216809      41.62916464      36.21607539
Si      34.84797299      43.01387253      34.84919748
Si      36.19811621      44.37110783      36.22024957
Si      26.70873185      32.12713212      37.58313952
Si      28.05570008      33.50928324      38.91056431
Si      29.40539683      34.86163479      37.56421914
Si      30.77431010      36.19302039      38.96444911
Si      32.14540605      37.53792690      37.57391191
Si      33.50046737      38.92984652      38.92776775
Si      34.85711496      40.25964552      37.58607506
Si      36.22412887      41.62517237      38.91440145
Si      37.53891686      42.97743566      37.54804484
Si      29.40715460      32.13202999      40.29279223
Si      30.75904016      33.48270580      41.64281013
Si      32.14072251      34.85240181      40.26004766
Si      33.47253915      36.21521626      41.63281759
Si      34.87122642      37.55911756      40.28698307
Si      36.22495738      38.92725751      41.64591531
Si      37.58621357      40.29388081      40.26061159
Si      32.11730362      32.15854348      43.01701799
Si      33.50642780      33.49805296      44.35740037
Si      34.82291790      34.86406580      43.00619992
Si      36.20887394      36.25489120      44.35381683
Si      37.54455357      37.56046894      42.98124711
Si      34.86692059      32.13848238      45.71360301
Si      21.25545489      34.84909628      34.84261016
Si      22.63702561      36.20412592      36.21552550
Si      23.98783778      37.57907748      34.80593072
Si      25.36031627      38.93930641      36.20930983
Si      26.72694003      40.28744313      34.86723509
Si      28.08146996      41.64425362      36.20470699
Si      29.44499002      43.00133117      34.84246461
Si      30.77329787      44.34667175      36.22430659
Si      32.12650245      45.71328521      34.82314858
Si      23.98979972      34.84281278      37.59112370
Si      25.35098965      36.22002919      38.91073445
Si      26.72908343      37.56905611      37.57453090
Si      28.06518901      38.92347716      38.90561581
Si      29.39454691      40.28725825      37.57455448
Si      30.78532893      41.62804669      38.93274771
Si      32.13840237      43.00177875      37.56663786
Si      33.49240901      44.36584283      38.90270041
Si      26.71515889      34.85020806      40.27173796
Si      28.06275294      36.19221600      41.63223723
Si      29.40974822      37.56905307      40.28823951
Si      30.79299049      38.95279229      41.64523000
Si      32.11158377      40.27151642      40.27979557
Si      33.48804086      41.64076834      41.65089098
Si      29.42711211      34.85635427      42.99178895
Si      30.77286749      36.22171233      44.36942404
Si      32.15648920      37.59453142      42.99285693
Si      33.48107283      38.92140591      44.37103730
Si      32.14534327      34.82261138      45.70621207
Si      21.27531844      37.55927737      37.55326282
Si      22.64634989      38.92546827      38.91142754
Si      24.00907744      40.28059679      37.56349907
Si      25.35989238      41.65132847      38.93203536
Si      26.70565417      42.98596335      37.55881426
Si      28.08437539      44.36110657      38.92902861
Si      29.43098890      45.71692518      37.59005143
Si      23.98191154      37.54156253      40.26740608
Si      25.35377651      38.93314539      41.63477630
Si      26.69799165      40.27936116      40.29740917
Si      28.06365460      41.63178240      41.61503736
Si      29.42942019      42.98356358      40.27412007
Si      26.72372786      37.55394089      42.97933703
Si      28.05142018      38.93949469      44.33774282
Si      29.41672920      40.28649566      42.98446741
Si      29.38510511      37.56650591      45.71436863
Si      21.25378693      40.28007864      40.26182232
Si      22.62791405      41.65105116      41.65351666
Si      23.98364832      42.96819027      40.28335386
Si      25.34807912      44.36157629      41.62827353
Si      26.71227721      45.71303766      40.32437494
Si      24.01207183      40.28848011      43.00852198
Si      25.38988835      41.64921691      44.35971723
Si      26.69696521      42.95974496      42.98506604
Si      26.72631386      40.29170608      45.71543212
Si      21.26800362      43.01234071      43.00960549
