108
Lattice="12.281281285786665 0.0 0.0 0.0 12.189751586898884 0.0 0.0 0.0 10.936025020613691" Properties=species:S:1:pos:R:3 id=sample_001322 pbc="F F F"
Cu       0.00047013       0.00095106      -0.01200974
Cu       0.01949365       2.03118889       1.83028494
Cu       2.04039082      -0.00403142       1.83163871
Cu       2.04762013       2.01091531      -0.00358955
Cu       0.00400625       0.01609507       3.62467210
Cu       0.00552188       2.04428317       5.47419129
Cu       2.06214586       0.00445682       5.46052216
Cu       2.05043811       2.01695853       3.64943753
Cu       0.00971472      -0.00967159       7.31389510
Cu       0.01392950       2.02868413       9.11841412
Cu       2.04048349      -0.00858989       9.11591994
Cu       2.04743054       2.04049601       7.27097276
Cu      -0.00862516       4.08206790      -0.02259145
Cu       0.00229953       6.09249554       1.83894941
Cu       2.06021071       4.05426285       1.82560630
Cu       2.04592239       6.09487509      -0.00212057
Cu      -0.00579000       4.06922797       3.64081181
Cu      -0.00077210       6.07346309       5.45440351
Cu       2.02868833       4.05441480       5.47137068
Cu       2.05190083       6.09485265       3.65118777
Cu       0.01777946       4.05659924       7.28608200
Cu       0.00654677       6.09520840       9.12477828
Cu       2.03413728       4.06058727       9.10309661
Cu       2.02943034       6.09001889       7.27586507
Cu       0.01559604       8.12309922      -0.00117434
Cu       0.00194311      10.15611253       1.82439988
Cu       2.01970319       8.14206911       1.81513096
Cu       2.03980938      10.16347523      -0.00467221
Cu       0.00460357       8.12091246       3.66105231
Cu      -0.00496068      10.16388944       5.47995556
Cu       2.06652677       8.12221825       5.47146735
Cu       2.06130232      10.15793913       3.63875149
Cu      -0.00676081       8.12887700       7.27943537
Cu      -0.00677507      10.14560306       9.10765734
Cu       2.06639472       8.11633226       9.11025243
Cu       2.03785003      10.14000945       7.28792586
Cu       4.08498284      -0.01496068       0.00497498
Cu       4.09620364       2.02024142       1.83537072
Cu       6.14526219       0.01535171       1.82043391
Cu       6.15345915       2.03696356      -0.00275970
Cu       4.08466618       0.00603142       3.64850460
Cu       4.08116845       2.02501352       5.48278672
Cu       6.13027109       0.01072215       5.45768738
Cu       6.13428817       2.01734249       3.65107459
Cu       4.10535005       0.01547276       7.29814597
Cu       4.08767310       2.03163618       9.12735427
Cu       6.15358450      -0.00252890       9.10439577
Cu       6.13290769       2.04164173       7.30902995
Cu       4.07919726       4.08434318      -0.00323256
Cu       4.11089158       6.09160881       1.82859312
Cu       6.14570397       4.06109037       1.82076085
Cu       6.14607638       6.08572582      -0.01421722
Cu       4.10049809       4.06589790       3.65418597
Cu       4.09250041       6.10612302       5.47059500
Cu       6.16375858       4.07884588       5.47690638
Cu       6.13971880       6.10427457       3.66495343
Cu       4.10266670       4.05242336       7.28941561
Cu       4.09576324       6.08383170       9.11775241
Cu       6.13621504       4.07223296       9.12592269
Cu       6.13849587       6.06941494       7.27041784
Cu       4.09076819       8.14331143      -0.01186829
Cu       4.11264378      10.17138586       1.82613296
Cu       6.15731233       8.14571458       1.83758633
Cu       6.14272074      10.16038992       0.00484511
Cu       4.10145812       8.12609544       3.64288814
Cu       4.08008551      10.14161633       5.47640964
Cu       6.14030219       8.13525206       5.45048804
Cu       6.14339984      10.15394983       3.64206751
Cu       4.09327360       8.11765985       7.27431429
Cu       4.10434015      10.15124374       9.12273430
Cu       6.15243171       8.12817107       9.10413948
Cu       6.13429672      10.14248729       7.29453394
Cu       8.18202846      -0.01222430      -0.01223591
Cu       8.17725454       2.03699751       1.82690156
Cu      10.22320865      -0.00522670       1.81057111
Cu      10.22181532       2.02048714       0.01244949
Cu       8.19639804       0.01189845       3.64366132
Cu       8.17037275       2.02733892       5.47420457
Cu      10.24105019       0.00011457       5.48291360
Cu      10.23276134       2.03532113       3.63696200
Cu       8.19011397      -0.01084655       7.28960202
Cu       8.17917127       2.03258349       9.12736512
Cu      10.23138987       0.01314263       9.10462668
Cu      10.25033814       2.03237377       7.28679626
Cu       8.18943469       4.06461424      -0.00443335
Cu       8.19251941       6.09932635       1.82533490
Cu      10.23021807       4.05820303       1.79025900
Cu      10.23950042       6.10458540       0.01562293
Cu       8.19208797       4.07066814       3.64463125
Cu       8.17441177       6.10388894       5.46119137
Cu      10.23178848       4.07342957       5.47138518
Cu      10.23371886       6.10648989       3.66587716
Cu       8.17390451       4.08073360       7.30568605
Cu       8.20594530       6.11028317       9.11998221
Cu      10.23363362       4.07025995       9.10958682
Cu      10.24793793       6.09895012       7.27875658
Cu       8.20901799       8.10834682       0.00270182
Cu       8.19886833      10.13671839       1.82520775
Cu      10.23644834       8.12757473       1.82079861
Cu      10.24416452      10.15620224       0.01163726
Cu       8.20876014       8.10937945       3.64569657
Cu       8.19807840      10.16674255       5.45838905
Cu      10.23069993       8.12781165       5.47807099
Cu      10.23822919      10.14793883       3.64972768
Cu       8.19762145       8.11594434       7.26930012
Cu       8.18347269      10.15061164       9.12379976
Cu      10.22669821       8.15479013       9.11901989
Cu      10.24035259      10.15890845       7.26913029
