108
Lattice="10.678804791506215 0.0 0.0 0.0 9.077076379167094 0.0 0.0 0.0 10.174889171863457" Properties=species:S:1:pos:R:3 id=sample_001100 pbc="F F F"
Fe       0.00550800      -0.01658334       0.00888046
Fe      -0.00331362       1.52533872       1.68603741
Fe       1.77383815      -0.00411601       1.66935386
Fe       1.79461542       1.49733550      -0.02299175
Fe      -0.01542001      -0.00347817       3.38094105
Fe       0.01336235       1.50357816       5.10707156
Fe       1.76544716      -0.00592478       5.08263347
Fe       1.78697239       1.51785908       3.40721225
Fe       0.00305497       0.01462740       6.78163950
Fe       0.01924827       1.49713036       8.47092302
Fe       1.78392163       0.01024208       8.47656152
Fe       1.78377755       1.51291583       6.78278744
Fe       0.00792513       3.02189015      -0.00309775
Fe      -0.00094269       4.54294956       1.68494276
Fe       1.77213431       3.02122790       1.69102095
Fe       1.76102237       4.53577614      -0.00677108
Fe      -0.01349294       3.02681815       3.39186979
Fe      -0.01264872       4.53917101       5.08789288
Fe       1.76448892       3.02481747       5.07496794
Fe       1.76662781       4.53330928       3.40482011
Fe       0.00349351       3.03591661       6.78221956
Fe       0.00672559       4.53327877       8.47530597
Fe       1.78760345       3.04168437       8.47879494
Fe       1.79333310       4.54177103       6.77176811
Fe      -0.01280420       6.04717582       0.01218018
Fe      -0.00175942       7.56760808       1.70741076
Fe       1.78113421       6.05055304       1.70583893
Fe       1.80247730       7.56663619      -0.00217663
Fe       0.00068739       6.04206487       3.38255497
Fe       0.00093819       7.58445305       5.10302255
Fe       1.77289771       6.04659282       5.10723674
Fe       1.78553968       7.55876652       3.38939876
Fe      -0.01027908       6.06430564       6.79260228
Fe      -0.00645199       7.56765588       8.49400066
Fe       1.78165399       6.03803329       8.47342363
Fe       1.78149084       7.55769919       6.77674290
Fe       3.55146240       0.01729067       0.00875076
Fe       3.57205752       1.50342390       1.69136810
Fe       5.33951735      -0.00947651       1.69371574
Fe       5.35884094       1.51511588       0.00099363
Fe       3.54772039      -0.00324506       3.38968103
Fe       3.57274060       1.51008322       5.09309964
Fe       5.34987795      -0.00927529       5.08789768
Fe       5.33479940       1.49080349       3.39660382
Fe       3.54827198       0.00737473       6.78280247
Fe       3.55657549       1.50220938       8.49136747
Fe       5.32568502      -0.00909880       8.49033516
Fe       5.34410811       1.51783107       6.78393592
Fe       3.56322198       3.01034941       0.01101034
Fe       3.56046250       4.52396044       1.71516950
Fe       5.32731629       3.01850448       1.71241170
Fe       5.33191776       4.53073545      -0.00083089
Fe       3.56287040       3.02061518       3.39636061
Fe       3.55706464       4.53850221       5.07751913
Fe       5.32229697       3.02764460       5.07729753
Fe       5.33961489       4.54238406       3.38384833
Fe       3.55418268       3.02071478       6.79019907
Fe       3.55541846       4.51604628       8.47737189
Fe       5.32495936       3.01743083       8.46967009
Fe       5.32243291       4.53872840       6.76174037
Fe       3.56036743       6.05808856       0.01449377
Fe       3.57085319       7.55825015       1.69194939
Fe       5.33950144       6.05819782       1.70032905
Fe       5.33315252       7.57961319      -0.00291109
Fe       3.55624906       6.05180456       3.40721499
Fe       3.56811415       7.54583860       5.09970009
Fe       5.34987104       6.04641049       5.07914131
Fe       5.34910331       7.54230591       3.39770757
Fe       3.56285924       6.05521366       6.79524789
Fe       3.56439708       7.57534871       8.47787730
Fe       5.33476402       6.03709417       8.48275681
Fe       5.33146764       7.56457104       6.78732507
Fe       7.10809559      -0.01764450      -0.00085564
Fe       7.13625014       1.52124418       1.67985763
Fe       8.91479774       0.01295882       1.68257567
Fe       8.91466699       1.51487554      -0.01206311
Fe       7.11036477      -0.00598040       3.37305484
Fe       7.10844277       1.51274204       5.08622865
Fe       8.89546631       0.00584904       5.08232282
Fe       8.87397447       1.51537755       3.39785371
Fe       7.10968920       0.00467368       6.77180433
Fe       7.12196603       1.51372447       8.47480259
Fe       8.88965364      -0.00663246       8.48940417
Fe       8.88964262       1.49096483       6.77903001
Fe       7.10967563       3.01674334      -0.00465848
Fe       7.13884543       4.53576011       1.69879089
Fe       8.89147415       3.04940048       1.69094128
Fe       8.88841028       4.54768929       0.01234935
Fe       7.11333041       3.01860880       3.37697909
Fe       7.11756439       4.54051762       5.08506013
Fe       8.91683429       3.01860574       5.10152685
Fe       8.90733040       4.54251662       3.39748178
Fe       7.10834212       3.02702048       6.79098888
Fe       7.12680984       4.53602878       8.48662760
Fe       8.88563074       3.02734578       8.49155169
Fe       8.89277530       4.53485592       6.77565497
Fe       7.11911220       6.06253198      -0.02010917
Fe       7.12151391       7.56330146       1.67572863
Fe       8.89826534       6.06295954       1.69051795
Fe       8.90434833       7.55297341      -0.00649100
Fe       7.10473890       6.02570446       3.38925687
Fe       7.11512044       7.56613568       5.08595949
Fe       8.90402094       6.06485467       5.09320365
Fe       8.90237241       7.56121272       3.39291105
Fe       7.13245972       6.05559668       6.79099041
Fe       7.12589011       7.56370612       8.47339884
Fe       8.91353290       6.05313003       8.47365040
Fe       8.90284722       7.55049541       6.78228221
