108
Lattice="13.180381352726833 0.0 0.0 0.0 10.593273783027165 0.0 0.0 0.0 12.073247698742966" Properties=species:S:1:pos:R:3 id=sample_001905 pbc="F F F"
Cu      -0.01594690      -0.00731679       0.00501000
Cu      -0.00376054       1.77453697       2.02018439
Cu       2.19548914      -0.02197823       2.00727458
Cu       2.17948958       1.75705073      -0.00618973
Cu      -0.01025076      -0.00277898       3.98781360
Cu      -0.00159944       1.74968686       6.04768305
Cu       2.18112230      -0.00920671       5.99612341
Cu       2.20510665       1.76491735       4.00250205
Cu       0.02051759      -0.00738945       8.06471257
Cu       0.01337499       1.76072562      10.07068239
Cu       2.17713746      -0.01314880      10.04119107
Cu       2.18452692       1.78118217       8.04403488
Cu      -0.02700714       3.51831663      -0.00994346
Cu       0.02633839       5.31328008       2.00053841
Cu       2.17472251       3.52921580       1.99888837
Cu       2.21543714       5.30623210      -0.00811284
Cu      -0.01660130       3.51469082       4.05617303
Cu      -0.00595330       5.26005025       6.03603702
Cu       2.20866762       3.50177542       6.04847582
Cu       2.17758621       5.31397035       4.02463768
Cu       0.00353002       3.51321339       8.03768819
Cu      -0.01186781       5.30286149      10.04731739
Cu       2.18754297       3.54705161      10.05990763
Cu       2.20590941       5.27975069       8.03970858
Cu      -0.00276128       7.08159240      -0.02651780
Cu      -0.00311514       8.82433492       2.02049111
Cu       2.19995881       7.05400778       2.00133669
Cu       2.22592281       8.81457938       0.00261190
Cu      -0.01185280       7.05500627       4.01253968
Cu      -0.01121160       8.83066725       6.02274252
Cu       2.18670166       7.07449344       6.05754868
Cu       2.17163398       8.84686103       4.03360716
Cu       0.00919024       7.05291463       8.06393180
Cu      -0.00837750       8.85283028      10.05404248
Cu       2.19011631       7.09037669      10.04843635
Cu       2.16853569       8.82073176       8.04069769
Cu       4.39038300      -0.00289899       0.00953203
Cu       4.40566236       1.75213752       2.00663116
Cu       6.58706891      -0.03020963       1.99365960
Cu       6.55348672       1.74345498      -0.01104983
Cu       4.40546008      -0.00166278       4.01489573
Cu       4.39211042       1.76366829       6.01859461
Cu       6.58185008       0.01407252       6.02289173
Cu       6.59434923       1.75896452       4.03259189
Cu       4.37189522       0.00798472       8.03770142
Cu       4.39643272       1.77859615      10.04284448
Cu       6.56202015      -0.00857429      10.05928132
Cu       6.57382323       1.75638884       8.05077447
Cu       4.36798484       3.52577008      -0.00850005
Cu       4.41305035       5.33160640       2.00476383
Cu       6.59591089       3.50906769       1.99696621
Cu       6.59351581       5.29678676      -0.00684031
Cu       4.41148343       3.55205193       4.04121694
Cu       4.39631651       5.30087249       6.04497181
Cu       6.59500296       3.54678305       6.02527111
Cu       6.58786560       5.29326737       4.03676860
Cu       4.41943458       3.53425841       8.05851246
Cu       4.39388851       5.30277887      10.09328726
Cu       6.60484431       3.52952189      10.05601282
Cu       6.59851889       5.28649196       8.03278849
Cu       4.38474577       7.06473244      -0.00790985
Cu       4.41289280       8.81275844       2.01064923
Cu       6.56672966       7.08748817       2.00191076
Cu       6.60327947       8.82177839      -0.00394828
Cu       4.38233291       7.08669699       4.01589380
Cu       4.40173788       8.80928928       6.04760360
Cu       6.56973077       7.05422486       6.03529168
Cu       6.60728317       8.80217514       4.02470240
Cu       4.38360459       7.04547495       8.07236022
Cu       4.38752805       8.83671189      10.08082502
Cu       6.58985811       7.08521507      10.06780635
Cu       6.57770569       8.82415273       8.04327723
Cu       8.79881585       0.02275931      -0.00166279
Cu       8.77548155       1.77306550       2.01681671
Cu      10.97267242       0.01943614       2.00182004
Cu      10.99641812       1.78113142       0.00504946
Cu       8.81064694      -0.01468825       4.01399693
Cu       8.78979938       1.76250825       6.05628052
Cu      10.98316029       0.01359252       6.04439145
Cu      11.01087840       1.77823966       4.04824230
Cu       8.78367727       0.02568321       8.02709488
Cu       8.79532251       1.76597079      10.05412238
Cu      10.95385059      -0.01934449      10.06439087
Cu      10.97035585       1.77704148       8.04652385
Cu       8.77625820       3.53934182       0.02880475
Cu       8.77207186       5.30500903       2.00797728
Cu      11.01178694       3.52388707       2.00475808
Cu      10.98030283       5.27974719       0.02708683
Cu       8.79685160       3.54354772       4.00400588
Cu       8.78770831       5.30711012       6.05339508
Cu      10.98059917       3.53915199       6.04005436
Cu      10.99456041       5.29097337       4.04323778
Cu       8.78562384       3.51820980       8.07280630
Cu       8.81797127       5.30418592      10.07952833
Cu      10.96692461       3.54335315      10.06198908
Cu      10.99472632       5.33537897       8.02747000
Cu       8.82225669       7.06247969      -0.02553691
Cu       8.77204606       8.83227520       2.01698310
Cu      11.00036010       7.05455754       2.00883916
Cu      10.98282574       8.84348413       0.01193088
Cu       8.81775058       7.03966058       4.03290652
Cu       8.79972858       8.81262945       6.04201718
Cu      11.00314343       7.08315844       6.04871009
Cu      10.99068441       8.80674864       4.01716910
Cu       8.79974281       7.07389672       8.03322297
Cu       8.78350410       8.82512441      10.05218878
Cu      10.99530396       7.06157895      10.04555079
Cu      10.98436142       8.84559627       8.02770600
