256
Lattice="12.937128976533264 0.0 0.0 0.0 12.87161336500657 0.0 0.0 0.0 11.638043072042159" Properties=species:S:1:pos:R:3 id=sample_000443 pbc="F F F"
Fe      -0.00162155       0.00695326       0.01739384
Fe       0.00605196       1.63347207       1.45721898
Fe       1.62572082      -0.00100067       1.43934804
Fe       1.60315182       1.59601901       0.01504289
Fe       0.00883143      -0.01630004       2.89890647
Fe      -0.00223381       1.59687799       4.35947332
Fe       1.62132048      -0.00067932       4.36124510
Fe       1.62772932       1.61478707       2.91780440
Fe      -0.00230284      -0.00104253       5.82379599
Fe       0.02236300       1.60323837       7.28457217
Fe       1.60603603       0.00223074       7.28913659
Fe       1.62350214       1.61727066       5.81209082
Fe      -0.00084480      -0.02363841       8.72252339
Fe      -0.01318099       1.62210441      10.17957217
Fe       1.61444747      -0.01273579      10.17263446
Fe       1.62243659       1.61286047       8.71985282
Fe      -0.00091363       3.21061253      -0.01083327
Fe       0.00309737       4.82120474       1.47155477
Fe       1.63363218       3.21138455       1.43886345
Fe       1.60684785       4.82259768       0.01629934
Fe       0.01360634       3.21347692       2.92492586
Fe      -0.00419181       4.82273966       4.36370331
Fe       1.61225928       3.20909981       4.37190611
Fe       1.61755538       4.81937114       2.91676906
Fe      -0.00629340       3.22519749       5.81398757
Fe      -0.01317012       4.82566599       7.27276813
Fe       1.62413876       3.21324075       7.27010736
Fe       1.61512883       4.82140658       5.83071313
Fe      -0.00521267       3.22588563       8.72923729
Fe      -0.01094837       4.82319869      10.16699615
Fe       1.63289815       3.21592584      10.19591766
Fe       1.61118686       4.81812887       8.71845692
Fe       0.01090539       6.42812172       0.00916576
Fe      -0.01292402       8.03856817       1.44023058
Fe       1.62892896       6.45386101       1.46642492
Fe       1.60356104       8.02307056       0.00565963
Fe       0.00720028       6.43688283       2.91382588
Fe       0.00206916       8.04105482       4.35610203
Fe       1.64150345       6.42061889       4.35299753
Fe       1.61541311       8.05986109       2.88804641
Fe      -0.00865447       6.44434951       5.81145797
Fe      -0.00664381       8.04136920       7.26331069
Fe       1.61136745       6.43220467       7.26150207
Fe       1.61674804       8.04536011       5.83109288
Fe      -0.00773270       6.43539930       8.71468924
Fe       0.00746281       8.03065512      10.19346803
Fe       1.61353215       6.43356152      10.17787157
Fe       1.61939923       8.05468657       8.73218499
Fe      -0.01749543       9.66402605      -0.00681565
Fe      -0.02303446      11.25740642       1.44487573
Fe       1.61356731       9.65119428       1.44744602
Fe       1.61275645      11.28701377      -0.00039029
Fe      -0.00760808       9.65582455       2.91695199
Fe       0.00274099      11.26574102       4.37636581
Fe       1.60580848       9.65077551       4.34977472
Fe       1.61217300      11.27236677       2.90902169
Fe       0.01683067       9.65652706       5.81765262
Fe      -0.00155089      11.27305028       7.28965072
Fe       1.62417673       9.64988899       7.28358621
Fe       1.60259001      11.27044988       5.82028026
Fe       0.00248035       9.65407830       8.72552129
Fe       0.00820083      11.25553674      10.16641002
Fe       1.62359137       9.65312126      10.18759042
Fe       1.59594150      11.25848738       8.74312522
Fe       3.23081902       0.00439431       0.00168850
Fe       3.24405640       1.59891153       1.46729499
Fe       4.85857618      -0.00795769       1.45947999
Fe       4.86149720       1.61614020      -0.00244345
Fe       3.22591206      -0.02537701       2.93245951
Fe       3.24109001       1.60442903       4.35658660
Fe       4.85715983       0.00293404       4.36862694
Fe       4.85488172       1.61148993       2.91485951
Fe       3.24414322      -0.00462857       5.82281945
Fe       3.23871971       1.62298876       7.27567388
Fe       4.84804881      -0.00089511       7.27937915
Fe       4.84243649       1.59701380       5.81342986
Fe       3.23582699       0.00096177       8.75153232
Fe       3.23500302       1.60325548      10.17843897
Fe       4.85968686       0.00839344      10.19510618
Fe       4.84375116       1.60008197       8.73918633
Fe       3.25031235       3.22128009      -0.00669230
Fe       3.24900408       4.83374347       1.45374169
Fe       4.86980015       3.20845802       1.44524664
Fe       4.85522853       4.83800067       0.00279875
Fe       3.23861360       3.21594370       2.91524797
Fe       3.23297796       4.82804486       4.36110271
Fe       4.85484049       3.22231551       4.37948898
Fe       4.83793405       4.82635907       2.92008243
Fe       3.24081873       3.22362888       5.83493701
Fe       3.22205398       4.83806573       7.27675589
Fe       4.84935093       3.21083058       7.27278092
Fe       4.85763443       4.81269848       5.82643283
Fe       3.25453806       3.21676238       8.72455343
Fe       3.22236081       4.82389572      10.18200069
Fe       4.84054957       3.20141254      10.19090770
Fe       4.86450537       4.82444459       8.71331077
Fe       3.22599078       6.43490202      -0.00660716
Fe       3.24531951       8.01918017       1.44956105
Fe       4.86624994       6.43986369       1.46859950
Fe       4.85836780       8.04623916      -0.01881939
Fe       3.23832468       6.44349533       2.91690613
Fe       3.22869078       8.01910323       4.35990528
Fe       4.83613911       6.43183993       4.38667788
Fe       4.86839606       8.05020417       2.92634538
Fe       3.23518379       6.44252609       5.80677449
Fe       3.24326429       8.05367143       7.26229998
Fe       4.85765275       6.42801808       7.28208731
Fe       4.83448092       8.05188752       5.83183920
Fe       3.23863216       6.43172556       8.71866905
Fe       3.23692786       8.05458879      10.17107111
Fe       4.83987200       6.43040126      10.16104700
Fe       4.85280033       8.04810985       8.73098835
Fe       3.22071877       9.67438842       0.00283063
Fe       3.23215961      11.25506631       1.43710239
Fe       4.84232814       9.65381318       1.44840589
Fe       4.86405311      11.26604773       0.01965752
Fe       3.22928681       9.64196240       2.90514845
Fe       3.23925157      11.26547894       4.37613192
Fe       4.85081566       9.63794987       4.35924371
Fe       4.84424945      11.26133439       2.91827135
Fe       3.23774927       9.65961587       5.83206295
Fe       3.24279813      11.26992805       7.26963427
Fe       4.85847478       9.66087347       7.26591882
Fe       4.85024260      11.26078558       5.81083896
Fe       3.22025196       9.65021407       8.73037786
Fe       3.24333078      11.25180008      10.18764429
Fe       4.87139229       9.64931559      10.18186296
Fe       4.85563238      11.26233065       8.72098855
Fe       6.46321713      -0.00687402       0.00755953
Fe       6.47767312       1.60603957       1.45728127
Fe       8.09560224       0.00700526       1.45289843
Fe       8.07790441       1.61994734       0.01086086
Fe       6.46959471       0.00511383       2.92154401
Fe       6.46806992       1.62326451       4.36389968
Fe       8.06869962      -0.00390908       4.36733787
Fe       8.08388287       1.59031213       2.90939454
Fe       6.46447713      -0.01662117       5.80935089
Fe       6.44730000       1.62383974       7.26897663
Fe       8.05404370      -0.00133050       7.25435698
Fe       8.08773082       1.60480008       5.81369905
Fe       6.47905379      -0.00801236       8.72352330
Fe       6.46908849       1.60436962      10.19182733
Fe       8.09408227      -0.00923411      10.19025971
Fe       8.08806380       1.60922221       8.71623486
Fe       6.47020022       3.21351414      -0.02732765
Fe       6.46822699       4.81922120       1.46086836
Fe       8.09563430       3.20355828       1.44187285
Fe       8.08284804       4.83075836       0.00615480
Fe       6.47510026       3.21331239       2.92305838
Fe       6.46927607       4.84300746       4.36507409
Fe       8.06888644       3.19778906       4.34993319
Fe       8.09067781       4.81563207       2.91609547
Fe       6.46348043       3.23243656       5.82213458
Fe       6.48208823       4.82067895       7.27304629
Fe       8.06778565       3.21802027       7.28240231
Fe       8.08609585       4.81819775       5.80895681
Fe       6.47238027       3.22014672       8.73504703
Fe       6.48328370       4.81810471      10.17903450
Fe       8.07760756       3.22164358      10.18210803
Fe       8.08343889       4.82720527       8.71658710
Fe       6.47210061       6.42262946       0.02558938
Fe       6.46434483       8.04636625       1.45117278
Fe       8.09888622       6.42896275       1.45330924
Fe       8.10984432       8.03081314      -0.00123498
Fe       6.46575507       6.42582708       2.87674026
Fe       6.44275090       8.05130597       4.36691029
Fe       8.09370268       6.42597296       4.35790181
Fe       8.09266687       8.04510936       2.91573938
Fe       6.48158137       6.42620938       5.82937370
Fe       6.47184849       8.04762768       7.27281987
Fe       8.07945754       6.43871882       7.26536740
Fe       8.10184555       8.04964799       5.83618300
Fe       6.46862710       6.44176704       8.72604834
Fe       6.47840789       8.04415884      10.17701994
Fe       8.07359813       6.43556423      10.18356033
Fe       8.08063895       8.04939388       8.73591669
Fe       6.46416273       9.65594480       0.00693263
Fe       6.45869918      11.30237354       1.45986227
Fe       8.08840686       9.63377276       1.45956055
Fe       8.08696100      11.26522698      -0.00210317
Fe       6.45983882       9.64318042       2.90400965
Fe       6.46644389      11.25644725       4.36687560
Fe       8.08583874       9.64962283       4.35353311
Fe       8.07803128      11.26274888       2.91830072
Fe       6.45363595       9.65493462       5.82172697
Fe       6.46567203      11.24720203       7.28694229
Fe       8.08573676       9.66804266       7.28341994
Fe       8.09703510      11.26607949       5.82793867
Fe       6.46087106       9.64809532       8.73624636
Fe       6.47074886      11.26761661      10.16604952
Fe       8.08416463       9.65627299      10.18667701
Fe       8.10173681      11.28140908       8.75232988
Fe       9.70414746      -0.01025488       0.01104956
Fe       9.68623372       1.60508318       1.45143786
Fe      11.33696665      -0.00030028       1.45900491
Fe      11.33219431       1.60804965      -0.01481294
Fe       9.70193625      -0.00979479       2.91308562
Fe       9.70525930       1.62259440       4.35495112
Fe      11.31471507       0.00699622       4.36395982
Fe      11.32532037       1.60516762       2.92134136
Fe       9.70886213      -0.00299912       5.80872602
Fe       9.68697249       1.62179683       7.29320120
Fe      11.32287152      -0.00768054       7.27814818
Fe      11.31828912       1.60252083       5.83874036
Fe       9.69853826      -0.00135155       8.73530897
Fe       9.69666867       1.60090268      10.20015594
Fe      11.30771230      -0.00437310      10.18533437
Fe      11.29424246       1.62837431       8.72829152
Fe       9.71411867       3.22755906       0.00634017
Fe       9.67300565       4.82201576       1.44230628
Fe      11.30937464       3.22393070       1.45692074
Fe      11.32271093       4.81497135      -0.00698521
Fe       9.70241930       3.19795811       2.91443904
Fe       9.70281659       4.81527949       4.35552712
Fe      11.33378731       3.20968427       4.38390058
Fe      11.32908296       4.82616047       2.91094754
Fe       9.71066019       3.21738129       5.80746071
Fe       9.69996203       4.82350230       7.27434908
Fe      11.32042168       3.21180980       7.25350166
Fe      11.32087688       4.83644560       5.83268016
Fe       9.70147060       3.23257720       8.74185010
Fe       9.69378449       4.82405681      10.18167323
Fe      11.30801896       3.21274424      10.17824878
Fe      11.31126374       4.80981471       8.71167078
Fe       9.70796684       6.44079771      -0.00405073
Fe       9.68355839       8.04850669       1.47035700
Fe      11.31036997       6.42980729       1.46666022
Fe      11.30866234       8.05996525       0.00091184
Fe       9.69636866       6.42460698       2.91939938
Fe       9.69191466       8.04167386       4.35594439
Fe      11.31076431       6.43610116       4.35333405
Fe      11.32648425       8.04651148       2.90872361
Fe       9.70620874       6.44181376       5.82114656
Fe       9.71456835       8.03249290       7.26021806
Fe      11.30724408       6.42804366       7.29082210
Fe      11.32505980       8.05929718       5.82972840
Fe       9.69680258       6.43419090       8.72568358
Fe       9.70848214       8.03735636      10.18454087
Fe      11.32163200       6.44732321      10.18784494
Fe      11.30875468       8.04564927       8.71981516
Fe       9.68719584       9.64397636      -0.00565441
Fe       9.69294675      11.25276306       1.46558964
Fe      11.30789107       9.66712960       1.44063260
Fe      11.34087802      11.24757196       0.00315265
Fe       9.69764870       9.65655221       2.92747759
Fe       9.70413264      11.24539665       4.36274370
Fe      11.32397201       9.65115403       4.36523269
Fe      11.31468486      11.25402523       2.90690677
Fe       9.70123367       9.64977184       5.80218001
Fe       9.71218668      11.25577011       7.28049190
Fe      11.31332375       9.64488752       7.28029629
Fe      11.33028736      11.28195096       5.82197733
Fe       9.69662959       9.65821966       8.73941902
Fe       9.71220768      11.25223019      10.17371613
Fe      11.31798121       9.65826866      10.18291425
Fe      11.31772479      11.26397730       8.72662304
