256
Lattice="25.960610223660296 0.0 0.0 0.0 27.721635038898647 0.0 0.0 0.0 20.10413313209987" Properties=species:S:1:pos:R:3 id=sample_001635 pbc="F F F"
Si       0.00026225      -0.00076001       0.00650724
Si       0.00053912       3.46404006       2.51174252
Si       3.24593194       0.00870430       2.51658517
Si       3.26008033       3.49049569      -0.00598647
Si       0.00711807       0.00387118       5.00292237
Si      -0.00524447       3.47142563       7.52873159
Si       3.25244196       0.00241442       7.53123839
Si       3.24794051       3.46913200       5.00300085
Si      -0.00179800      -0.00012382      10.06541116
Si      -0.00900439       3.47002289      12.57185164
Si       3.23238877      -0.00187218      12.57261828
Si       3.24352865       3.45015209      10.04472928
Si      -0.01327295      -0.00253285      15.07857177
Si      -0.00315460       3.47540381      17.58731502
Si       3.25350016      -0.00807104      17.58529773
Si       3.22852683       3.46692613      15.09561006
Si      -0.00459284       6.92554545       0.01635909
Si      -0.00183682      10.40420972       2.51246489
Si       3.25375897       6.94850803       2.52203663
Si       3.23784310      10.37456211      -0.00093259
Si       0.00388892       6.94417292       5.02551362
Si      -0.00497722      10.41617270       7.51426440
Si       3.24033948       6.93603961       7.54524044
Si       3.23502525      10.40029340       5.03751258
Si      -0.00738798       6.93607216      10.03202687
Si      -0.00005735      10.39348268      12.56961599
Si       3.23593898       6.94196743      12.57223550
Si       3.24672569      10.39293361      10.04158933
Si       0.00854717       6.91635024      15.08455708
Si       0.00397318      10.37572421      17.60038911
Si       3.24214948       6.93200718      17.57423958
Si       3.24001148      10.40977064      15.07918637
Si      -0.00517850      13.85921480      -0.01246723
Si       0.00015920      17.31852311       2.49026408
Si       3.22279342      13.86059478       2.51764630
Si       3.24623700      17.31457137       0.00916442
Si       0.00132236      13.85357060       5.04759433
Si      -0.00943616      17.31511375       7.53674456
Si       3.23490039      13.85692962       7.54189009
Si       3.23985579      17.33894509       5.02137491
Si      -0.02161023      13.87365690      10.05937717
Si      -0.00586147      17.32075007      12.55724561
Si       3.23572763      13.87258213      12.57591631
Si       3.22865631      17.33918054      10.05471209
Si      -0.00347792      13.86344676      15.08871866
Si       0.01917284      17.32557337      17.58086642
Si       3.25033039      13.86865004      17.58684649
Si       3.25353939      17.32442725      15.07932332
Si      -0.00321810      20.79715472      -0.00137842
Si      -0.00771825      24.27268500       2.52467365
Si       3.25315035      20.79488738       2.51691325
Si       3.23821917      24.26325916       0.00419343
Si      -0.01171413      20.79088954       5.02893686
Si      -0.00890904      24.24310622       7.55427655
Si       3.26174723      20.80018761       7.54030483
Si       3.25473605      24.27006851       5.02955980
Si      -0.01672973      20.77982270      10.05270251
Si      -0.01201865      24.24799721      12.57784724
Si       3.25381011      20.80394791      12.57998182
Si       3.22177768      24.24352704      10.08174839
Si      -0.00481857      20.80308372      15.07845903
Si       0.00682353      24.26312601      17.58984995
Si       3.24224295      20.78982160      17.59485222
Si       3.25753232      24.26442676      15.07207805
Si       6.48866013       0.01362680      -0.00477926
Si       6.49573650       3.46323522       2.52502431
Si       9.75322300      -0.00827403       2.52767645
Si       9.72524675       3.46477135       0.00241123
Si       6.48562777      -0.01593106       5.03290976
Si       6.48419612       3.47220564       7.50488483
Si       9.73319308       0.00423686       7.53095578
Si       9.72954773       3.47867589       5.00717279
Si       6.48145409       0.00867488      10.05926474
Si       6.48959673       3.47181644      12.56122121
Si       9.75410878       0.00043971      12.55289982
Si       9.73012050       3.46643341      10.04829836
Si       6.47690197      -0.00742476      15.07373330
Si       6.47255708       3.47130347      17.58904472
Si       9.72520577       0.01193286      17.58071227
Si       9.73529844       3.46454314      15.07097675
Si       6.48820096       6.93790634       0.02820226
Si       6.50436304      10.39114242       2.52920390
Si       9.73600100       6.96104873       2.51640119
Si       9.71547516      10.38904131      -0.00818438
Si       6.48406462       6.93992183       5.03131318
Si       6.49999932      10.40384243       7.53113565
Si       9.74375425       6.93192246       7.53267596
Si       9.72619824      10.39804950       5.01186198
Si       6.49161531       6.92800039      10.04097428
Si       6.47592113      10.40622751      12.56628733
Si       9.73290336       6.92911719      12.56765762
Si       9.73038091      10.37776121      10.04399662
Si       6.48416868       6.91633686      15.06645005
Si       6.49011463      10.39058181      17.58468112
Si       9.73290254       6.93402265      17.59783204
Si       9.74273560      10.40077983      15.08777499
Si       6.48010277      13.86937502       0.01375297
Si       6.47819926      17.33015766       2.51884857
Si       9.73486085      13.83809924       2.50274000
Si       9.73658845      17.33153930      -0.00735567
Si       6.50041825      13.87297978       5.01632983
Si       6.51420332      17.33252330       7.52122927
Si       9.75173663      13.85307230       7.52552455
Si       9.74580647      17.32356894       5.00375679
Si       6.49773943      13.87666261      10.03749361
Si       6.47600191      17.34668411      12.55935976
Si       9.75325280      13.85648987      12.55428508
Si       9.72947297      17.32005296      10.05668914
Si       6.48851122      13.86495616      15.06804602
Si       6.48177330      17.31421945      17.60160426
Si       9.73739288      13.84711534      17.59659625
Si       9.73579339      17.32798408      15.07476692
Si       6.49597041      20.80177863      -0.00128187
Si       6.48514074      24.26130639       2.50293568
Si       9.75180703      20.80819850       2.50882462
Si       9.73528858      24.26767931       0.00158738
Si       6.49795540      20.81169507       5.01500130
Si       6.47615495      24.26480125       7.52339424
Si       9.72829759      20.78998177       7.54789163
Si       9.71763268      24.25592363       5.01810692
Si       6.50006407      20.80222541      10.05470776
Si       6.50104271      24.24856869      12.56958201
Si       9.75179838      20.79616428      12.57097055
Si       9.74601638      24.26338732      10.06787758
Si       6.48182958      20.79045808      15.08212703
Si       6.48856548      24.25479791      17.58283862
Si       9.73181412      20.78643843      17.58291382
Si       9.73622229      24.26585032      15.07486004
Si      12.97842236      -0.01818638      -0.00186020
Si      12.96814094       3.46792506       2.53655236
Si      16.21787239       0.00608047       2.50329782
Si      16.21869674       3.47811669      -0.00678717
Si      12.98848812       0.01393985       5.03929521
Si      12.97172096       3.46131165       7.51969059
Si      16.22669939      -0.00232143       7.54212546
Si      16.21878032       3.47756129       5.03207789
Si      12.97431472      -0.00210968      10.05522110
Si      12.97725964       3.46259510      12.58306694
Si      16.22733221       0.00483134      12.57176382
Si      16.21314985       3.48170974      10.04659878
Si      12.97700034      -0.00287997      15.07694103
Si      12.98026748       3.46325823      17.58895448
Si      16.22704037      -0.00691072      17.59852298
Si      16.22764811       3.46034566      15.06850949
Si      12.97227200       6.92875673       0.00669862
Si      12.99529555      10.39724989       2.51507823
Si      16.22772108       6.92076216       2.51081481
Si      16.22532510      10.40946320      -0.00556516
Si      12.99109646       6.92034803       5.02740310
Si      13.00075173      10.37738551       7.54791846
Si      16.23318683       6.93636932       7.54207172
Si      16.22957575      10.38505846       5.03337509
Si      12.97450996       6.92619266      10.06620233
Si      12.97399652      10.39387197      12.55812385
Si      16.23398586       6.91036345      12.56292068
Si      16.21722199      10.38565524      10.04654463
Si      12.95495296       6.91871047      15.06543103
Si      12.98981181      10.39508672      17.60511612
Si      16.23312642       6.93340334      17.60483242
Si      16.22531480      10.40562744      15.08069504
Si      12.98316498      13.85938322       0.01449907
Si      12.96758244      17.32566264       2.52137935
Si      16.23311868      13.86052401       2.52038179
Si      16.22077943      17.33932896       0.01219160
Si      12.96222446      13.85316662       5.02679257
Si      12.96813641      17.31611939       7.54208866
Si      16.21202737      13.86074916       7.55241275
Si      16.22726697      17.31759760       5.03783445
Si      12.96212546      13.84125566      10.05392838
Si      12.97536050      17.32142222      12.55895697
Si      16.23350949      13.85522598      12.56891846
Si      16.23578873      17.32321669      10.05498830
Si      12.98053881      13.86069017      15.07648589
Si      12.99046316      17.32579599      17.59307801
Si      16.21104060      13.86958300      17.59364977
Si      16.21457299      17.33140742      15.07704188
Si      12.97977028      20.81172778      -0.00470757
Si      12.96596336      24.25321462       2.51321742
Si      16.22566070      20.80172855       2.51729222
Si      16.23725037      24.25052116       0.00268912
Si      12.98114008      20.77582109       4.99777136
Si      12.97707140      24.26043084       7.54116622
Si      16.19813521      20.80181638       7.54593642
Si      16.21433029      24.24602121       5.02089621
Si      12.96209289      20.80129696      10.05755824
Si      12.99289464      24.25964343      12.56239118
Si      16.21246733      20.77603578      12.58701000
Si      16.22952119      24.26400764      10.05961429
Si      12.98580136      20.77721034      15.07295926
Si      12.96349230      24.25739186      17.57477768
Si      16.20687814      20.78992882      17.58642861
Si      16.21697225      24.26169063      15.07857975
Si      19.48965818      -0.00087289      -0.02169961
Si      19.47498102       3.44442033       2.51758273
Si      22.70558384      -0.00674010       2.52064659
Si      22.72675419       3.46829327      -0.00530480
Si      19.47272065      -0.00568917       5.02588369
Si      19.47340720       3.46185002       7.53453380
Si      22.71238139       0.00811520       7.54885111
Si      22.71392822       3.44898584       5.02943234
Si      19.47190306       0.00631298      10.04319702
Si      19.47423136       3.45407038      12.56283456
Si      22.71559104       0.00983491      12.57224020
Si      22.71273530       3.46134598      10.06804008
Si      19.46860245      -0.00832117      15.08676926
Si      19.46585471       3.45901534      17.60375580
Si      22.70644137       0.00198691      17.58746255
Si      22.70993697       3.46641881      15.09326742
Si      19.46457867       6.93499328       0.00045330
Si      19.47523573      10.40084689       2.50043541
Si      22.71500523       6.93998465       2.49486669
Si      22.71525366      10.39341050      -0.00370095
Si      19.49179755       6.92152687       5.02741500
Si      19.45745501      10.38952751       7.53206544
Si      22.72627429       6.93640710       7.55557738
Si      22.71396140      10.38746279       5.03560872
Si      19.48134747       6.93866894      10.06166765
Si      19.46894171      10.38740831      12.55965499
Si      22.72142519       6.93473959      12.55269370
Si      22.71670542      10.38875585      10.06077737
Si      19.45743712       6.93522918      15.06543172
Si      19.45695138      10.40104101      17.61185483
Si      22.69400271       6.93310868      17.60129652
Si      22.72104011      10.38908672      15.08719956
Si      19.46163238      13.85748428       0.00433331
Si      19.45987421      17.31951878       2.50088852
Si      22.71803953      13.85703521       2.51277031
Si      22.71356265      17.32176765       0.00566771
Si      19.46163752      13.84432622       5.02518020
Si      19.48013156      17.33905560       7.54533218
Si      22.72093468      13.86355217       7.53256623
Si      22.71819227      17.31210984       5.03233913
Si      19.48100136      13.87525952      10.04561297
Si      19.47163426      17.33086279      12.56261542
Si      22.70080999      13.87446191      12.54977858
Si      22.71340608      17.32051331      10.05679229
Si      19.46995313      13.86885606      15.08435240
Si      19.49487988      17.33144333      17.58515155
Si      22.70993528      13.84969798      17.59241106
Si      22.70371156      17.33259989      15.08624373
Si      19.46432198      20.78636655      -0.00122809
Si      19.48508861      24.28018423       2.52427881
Si      22.71421286      20.79502836       2.52468257
Si      22.72685638      24.26318720       0.00629634
Si      19.46729596      20.79944606       5.02361096
Si      19.47177979      24.25259146       7.55230801
Si      22.73448331      20.78888712       7.55728824
Si      22.70307202      24.26218496       5.02427351
Si      19.47124306      20.79081095      10.05188653
Si      19.46178641      24.23797642      12.56970070
Si      22.71716056      20.79364564      12.56836534
Si      22.72633220      24.25117235      10.05585693
Si      19.46777261      20.78317512      15.07239425
Si      19.48343018      24.25968615      17.58904822
Si      22.72201011      20.80066298      17.59611360
Si      22.70681905      24.25706037      15.06346310
