214
Lattice="172.75273034862474 0.0 0.0 0.0 172.75273034862474 0.0 0.0 0.0 172.75273034862474" Properties=species:S:1:pos:R:3:initial_magmoms:R:1 id=sample_001850 pbc="T T T"
Fe      83.14384232      83.14212646      83.14821393       2.30000000
Fe      84.58350755      84.58888556      81.70880220       2.30000000
Fe      86.01075370      86.00585038      80.27835249       2.30000000
Fe      87.44683700      87.45383923      78.85155486       2.30000000
Fe      88.88475940      88.88341203      77.41232687       2.30000000
Fe      90.30150842      90.31997225      75.98043299       2.30000000
Fe      91.73844959      91.75137118      74.54717347       2.30000000
Fe      93.17279945      93.19466485      73.11995903       2.30000000
Fe      84.58074162      81.72608533      84.57946204       2.30000000
Fe      86.01501293      83.15857926      83.15416620       2.30000000
Fe      87.44263871      84.57345184      81.73683942       2.30000000
Fe      88.87102963      86.00443974      80.28104769       2.30000000
Fe      90.32183862      87.43898511      78.85671789       2.30000000
Fe      91.74819795      88.87160383      77.41073294       2.30000000
Fe      93.17672540      90.30315297      75.99564544       2.30000000
Fe      94.62040034      91.74629487      74.53119431       2.30000000
Fe      86.01177792      80.28626727      86.02256138       2.30000000
Fe      87.44501790      81.71047033      84.58477560       2.30000000
Fe      88.89691711      83.15483704      83.15730404       2.30000000
Fe      90.31892862      84.59052342      81.70604494       2.30000000
Fe      91.73715626      86.00965358      80.29027833       2.30000000
Fe      93.17202598      87.46787141      78.85000320       2.30000000
Fe      94.60280761      88.87154205      77.40968290       2.30000000
Fe      87.45816642      78.85163498      87.44283827       2.30000000
Fe      88.89142544      80.29368077      86.01670624       2.30000000
Fe      90.29993647      81.71047209      84.58034961       2.30000000
Fe      91.74458774      83.17231306      83.15421305       2.30000000
Fe      93.17822953      84.59598065      81.72072639       2.30000000
Fe      94.60509767      86.00542307      80.28608746       2.30000000
Fe      96.03819120      87.44605725      78.85479364       2.30000000
Fe      88.89280004      77.42565090      88.89627555       2.30000000
Fe      90.30923989      78.84882744      87.43565749       2.30000000
Fe      91.73001954      80.28310216      85.99939147       2.30000000
Fe      93.17993200      81.72946560      84.57328867       2.30000000
Fe      94.61415334      83.12940787      83.16515634       2.30000000
Fe      96.03251442      84.58191932      81.69600288       2.30000000
Fe      90.33024219      75.98206821      90.31128697       2.30000000
Fe      91.76334730      77.41706728      88.87552979       2.30000000
Fe      93.18697941      78.83732563      87.44467811       2.30000000
Fe      94.62172509      80.28409142      85.99205274       2.30000000
Fe      96.06114366      81.70595438      84.59765407       2.30000000
Fe      91.74609927      74.53218711      91.75001706       2.30000000
Fe      93.18212794      75.98104439      90.31038347       2.30000000
Fe      94.60942788      77.40730929      88.88895941       2.30000000
Fe      96.06249998      78.84899870      87.44961621       2.30000000
Fe      93.19385708      73.10214443      93.18704634       2.30000000
Fe      94.61615623      74.53858600      91.74027047       2.30000000
Fe      81.72213193      84.59071469      84.59004821       2.30000000
Fe      83.15330737      86.01672618      83.16656001       2.30000000
Fe      84.57287638      87.43260744      81.72232044       2.30000000
Fe      86.01284010      88.87759618      80.28759075       2.30000000
Fe      87.42831899      90.30540946      78.84843088       2.30000000
Fe      88.87471520      91.75603315      77.41494456       2.30000000
Fe      90.32591440      93.17459639      76.00091538       2.30000000
Fe      91.74562091      94.62190054      74.53601990       2.30000000
Fe      83.13629754      83.14908365      86.01311392       2.30000000
Fe      84.57839106      84.55981700      84.58146135       2.30000000
Fe      86.02398752      86.00422212      83.14733385       2.30000000
Fe      87.46029884      87.46818266      81.71537413       2.30000000
Fe      88.88014323      88.89362961      80.27623170       2.30000000
Fe      90.30916589      90.32212617      78.83347202       2.30000000
Fe      91.73980723      91.73555473      77.42507484       2.30000000
Fe      93.18338100      93.17436989      75.97134546       2.30000000
Fe      84.58124050      81.72138541      87.44167970       2.30000000
Fe      86.03237333      83.15636428      86.01558332       2.30000000
Fe      87.44993630      84.57304640      84.59241279       2.30000000
Fe      88.87601455      86.01592434      83.14245826       2.30000000
Fe      90.31656341      87.43674503      81.71829730       2.30000000
Fe      91.73543527      88.87952910      80.28558170       2.30000000
Fe      93.18440964      90.30149963      78.84498100       2.30000000
Fe      86.01422366      80.27323446      88.88230402       2.30000000
Fe      87.45911767      81.70661885      87.45189610       2.30000000
Fe      88.89012250      83.14119462      86.01869193       2.30000000
Fe      90.31557048      84.59229975      84.58100459       2.30000000
Fe      91.75424947      86.00524789      83.14962757       2.30000000
Fe      93.17379291      87.43346329      81.70495914       2.30000000
Fe      87.45745692      78.84311361      90.29384707       2.30000000
Fe      88.87477976      80.28741886      88.88480266       2.30000000
Fe      90.31996068      81.72557289      87.42730752       2.30000000
Fe      91.73709920      83.15410381      86.00214040       2.30000000
Fe      93.19325621      84.59036210      84.59003836       2.30000000
Fe      88.88891598      77.41714468      91.75228639       2.30000000
Fe      90.32113269      78.85489565      90.30799047       2.30000000
Fe      91.73754300      80.26330136      88.88625424       2.30000000
Fe      93.17397430      81.71857627      87.47255216       2.30000000
Fe      90.31498652      75.96795103      93.16337576       2.30000000
Fe      91.74413883      77.42169508      91.75031892       2.30000000
Fe      93.17921639      78.84771363      90.31300995       2.30000000
Fe      91.76752887      74.55946633      94.59825997       2.30000000
Fe      93.16098839      76.01303929      93.16072103       2.30000000
Fe      80.28797201      86.02017406      86.02095980       2.30000000
Fe      81.71266142      87.43710091      84.58515662       2.30000000
Fe      83.15963153      88.86871045      83.12605907       2.30000000
Fe      84.59597256      90.31388143      81.71450106       2.30000000
Fe      86.02816054      91.74334688      80.28468968       2.30000000
Fe      87.45829659      93.16578258      78.84034793       2.30000000
Fe      88.86694889      94.59263284      77.43032769       2.30000000
Fe      81.71398525      84.59132035      87.46351444       2.30000000
Fe      83.15690608      86.02106592      86.01659231       2.30000000
Fe      84.58024678      87.45750288      84.58029797       2.30000000
Fe      86.01568845      88.87081741      83.14886185       2.30000000
Fe      87.43931141      90.31966185      81.72038691       2.30000000
Fe      88.89699452      91.73406239      80.28818497       2.30000000
Fe      90.30823333      93.17790122      78.86184809       2.30000000
Fe      83.14471387      83.13395119      88.89109332       2.30000000
Fe      84.58021449      84.59124154      87.45432185       2.30000000
Fe      86.01889858      86.01262390      86.03716777       2.30000000
Fe      87.44207319      87.44620131      84.59106300       2.30000000
Fe      88.87526930      88.89889399      83.15481332       2.30000000
Fe      90.29373529      90.30137743      81.71046529       2.30000000
Fe      84.58848966      81.70601464      90.30922113       2.30000000
Fe      86.03231147      83.13042836      88.88283898       2.30000000
Fe      87.43867422      84.57629313      87.45004565       2.30000000
Fe      88.87357058      86.01656475      86.01165122       2.30000000
Fe      90.29899761      87.45442435      84.57797930       2.30000000
Fe      91.73584059      88.88371308      83.14181294       2.30000000
Fe      86.00818700      80.27714499      91.74351265       2.30000000
Fe      87.42819295      81.72153172      90.31376944       2.30000000
Fe      88.88219728      83.14866211      88.87021379       2.30000000
Fe      90.32783698      84.59401886      87.46537181       2.30000000
Fe      91.74361734      86.02701529      86.00581863       2.30000000
Fe      87.45164069      78.85518828      93.16112398       2.30000000
Fe      88.88230438      80.27327485      91.74951671       2.30000000
Fe      90.30718718      81.71340668      90.32123831       2.30000000
Fe      91.74789186      83.13921109      88.88086096       2.30000000
Fe      88.87057083      77.41430013      94.59878013       2.30000000
Fe      90.32269743      78.85585930      93.18074775       2.30000000
Fe      78.85122098      87.43843987      87.46065211       2.30000000
Fe      80.28132891      88.88885861      86.01967034       2.30000000
Fe      81.72210724      90.30532955      84.57488995       2.30000000
Fe      83.14650739      91.73568915      83.15435618       2.30000000
Fe      84.56865595      93.17757163      81.73425290       2.30000000
Fe      86.01756788      94.61097463      80.28586822       2.30000000
Fe      87.44903376      96.04898145      78.84682665       2.30000000
Fe      80.27821902      86.01272400      88.87311835       2.30000000
Fe      81.72467429      87.46120582      87.44260254       2.30000000
Fe      83.16741280      88.87455555      86.01474941       2.30000000
Fe      84.58274345      90.31102834      84.58610295       2.30000000
Fe      86.00900520      91.74966462      83.13794521       2.30000000
Fe      87.44519297      93.17012303      81.71526107       2.30000000
Fe      81.71490906      84.59346274      90.31407292       2.30000000
Fe      83.13849874      86.01803656      88.89146230       2.30000000
Fe      84.58038318      87.44703776      87.44213317       2.30000000
Fe      85.99718203      88.87887056      86.01354386       2.30000000
Fe      87.45872860      90.31216521      84.57401380       2.30000000
Fe      88.88504910      91.74242766      83.15376579       2.30000000
Fe      83.15302548      83.14661894      91.75622133       2.30000000
Fe      84.58659371      84.57520312      90.30428340       2.30000000
Fe      86.00837795      86.00567464      88.88222292       2.30000000
Fe      87.44667733      87.44653774      87.44975950       2.30000000
Fe      88.88460772      88.86502115      86.01021663       2.30000000
Fe      84.58359852      81.71792916      93.17193931       2.30000000
Fe      86.03473766      83.14884751      91.74858050       2.30000000
Fe      87.44925234      84.58189644      90.29505277       2.30000000
Fe      88.88562791      86.01876410      88.87200464       2.30000000
Fe      86.01576682      80.27631874      94.61651492       2.30000000
Fe      87.44879377      81.72933109      93.18309238       2.30000000
Fe      88.87802419      83.16092521      91.73977306       2.30000000
Fe      87.43855551      78.86098749      96.05630347       2.30000000
Fe      77.42053178      88.88325184      88.88626895       2.30000000
Fe      78.86198771      90.31412801      87.44374162       2.30000000
Fe      80.29604437      91.73665803      86.02309550       2.30000000
Fe      81.71845514      93.17350942      84.57989824       2.30000000
Fe      83.14081643      94.61218287      83.14061118       2.30000000
Fe      84.58396304      96.04516125      81.69149947       2.30000000
Fe      78.83593893      87.46619823      90.29632790       2.30000000
Fe      80.29704169      88.88378108      88.87025466       2.30000000
Fe      81.72109351      90.31126023      87.42897242       2.30000000
Fe      83.13988901      91.75858488      86.02731081       2.30000000
Fe      84.58143675      93.19078914      84.58273740       2.30000000
Fe      80.28224583      86.00203727      91.74446133       2.30000000
Fe      81.71265982      87.43329815      90.32417668       2.30000000
Fe      83.15541914      88.87712756      88.88424939       2.30000000
Fe      84.58367162      90.29482092      87.43897980       2.30000000
Fe      86.00663275      91.72108820      86.00172021       2.30000000
Fe      81.71140527      84.58879036      93.17245387       2.30000000
Fe      83.14281968      86.01856723      91.76519845       2.30000000
Fe      84.57342594      87.45295698      90.30535001       2.30000000
Fe      86.00362267      88.88171419      88.86582594       2.30000000
Fe      83.15101154      83.15139126      94.61735316       2.30000000
Fe      84.57632718      84.59060001      93.16482919       2.30000000
Fe      86.00923881      86.02104725      91.74289660       2.30000000
Fe      84.59108231      81.72423712      96.06772686       2.30000000
Fe      75.97419843      90.30586412      90.30048835       2.30000000
Fe      77.41380530      91.73776811      88.88072035       2.30000000
Fe      78.85952154      93.17602385      87.43447933       2.30000000
Fe      80.29522318      94.61538120      86.01388910       2.30000000
Fe      81.71545221      96.02703167      84.58465557       2.30000000
Fe      77.40735893      88.89892382      91.75432529       2.30000000
Fe      78.84357003      90.30510409      90.31060986       2.30000000
Fe      80.29603945      91.73201905      88.86044798       2.30000000
Fe      81.70426891      93.17985115      87.45566500       2.30000000
Fe      78.85171488      87.44529786      93.18756916       2.30000000
Fe      80.26990495      88.86316043      91.76607846       2.30000000
Fe      81.71388394      90.29000706      90.30734409       2.30000000
Fe      83.13089554      91.75138484      88.87731685       2.30000000
Fe      80.27266862      86.00859280      94.59002492       2.30000000
Fe      81.72208642      87.46072576      93.18827586       2.30000000
Fe      83.15502771      88.88094615      91.74977658       2.30000000
Fe      81.71010525      84.58148837      96.03505813       2.30000000
Fe      74.55932923      91.73626063      91.74724371       2.30000000
Fe      75.99562963      93.18238279      90.29749404       2.30000000
Fe      77.42705189      94.61056894      88.88876664       2.30000000
Fe      78.87259934      96.04466545      87.44282502       2.30000000
Fe      75.98838225      90.31662735      93.18183276       2.30000000
Fe      77.41062758      91.74813917      91.75510248       2.30000000
Fe      78.84667483      93.17217351      90.30826829       2.30000000
Fe      77.43766003      88.89472623      94.60194839       2.30000000
Fe      78.83313219      90.30483405      93.17547804       2.30000000
Fe      78.85130055      87.44339011      96.04501735       2.30000000
Fe      73.13206819      93.19014410      93.17536134       2.30000000
Fe      74.53810046      94.59585974      91.73652181       2.30000000
Fe      74.53575681      91.76038815      94.61593272       2.30000000
Fe      76.00428381      93.19800315      93.17608296       2.30000000
