256
Lattice="20.261860938725672 0.0 0.0 0.0 16.92073279799091 0.0 0.0 0.0 17.047678936390255" Properties=species:S:1:pos:R:3 id=sample_001984 pbc="F F F"
Al      -0.01242964       0.00194355      -0.02420210
Al       0.00255840       2.09798076       2.14099285
Al       2.52294020       0.00063533       2.13539948
Al       2.52850166       2.11827042      -0.00197556
Al       0.00255095      -0.01007136       4.26461755
Al       0.02440469       2.11251144       6.37500523
Al       2.53930450      -0.01494206       6.38896429
Al       2.53337045       2.11889033       4.25984915
Al       0.00543705       0.01231391       8.51700396
Al       0.00145594       2.10782157      10.66144540
Al       2.52002577      -0.00922855      10.65274990
Al       2.52261057       2.10014108       8.52016469
Al       0.00860877       0.00696881      12.80220183
Al      -0.00436762       2.10396858      14.90338408
Al       2.54339472       0.00038027      14.91463151
Al       2.53195436       2.12102174      12.80151582
Al       0.01300603       4.23660966      -0.00161596
Al      -0.01622345       6.34774213       2.13332260
Al       2.54382353       4.23864724       2.12717015
Al       2.54358587       6.34084992       0.00456679
Al      -0.00481696       4.23643238       4.26416383
Al      -0.01411584       6.33606256       6.39265734
Al       2.52977501       4.21792666       6.39830329
Al       2.54124894       6.35855853       4.26801894
Al       0.02207694       4.23675863       8.53160391
Al      -0.00201807       6.33591475      10.65828093
Al       2.53226254       4.23335019      10.64945907
Al       2.51534188       6.35698066       8.51431270
Al      -0.00324223       4.24958065      12.77643665
Al      -0.00187759       6.37708781      14.91765879
Al       2.54478253       4.21783713      14.91982563
Al       2.52984022       6.34840568      12.77787192
Al       0.00282246       8.45802301       0.00545092
Al      -0.01908635      10.59268266       2.12720638
Al       2.53362609       8.44583194       2.13294874
Al       2.51777593      10.57227565       0.00218307
Al      -0.00221639       8.45577434       4.25899265
Al       0.00075137      10.58178160       6.39835144
Al       2.54885498       8.46166318       6.39509049
Al       2.53281364      10.58157694       4.26747302
Al      -0.01242816       8.45895947       8.52931345
Al       0.00364220      10.56679851      10.66820533
Al       2.53830860       8.45405924      10.66425024
Al       2.52015018      10.56927804       8.51543316
Al      -0.00663291       8.45544985      12.77882685
Al       0.01591814      10.55801095      14.91402597
Al       2.52764722       8.46149632      14.93557389
Al       2.52153654      10.57315308      12.78291938
Al       0.00464488      12.68860261      -0.00684734
Al       0.00253029      14.80301108       2.14081709
Al       2.54013166      12.70204477       2.13308796
Al       2.53582203      14.83075145       0.00299231
Al       0.01114799      12.68777569       4.25674294
Al       0.00206883      14.81362427       6.38194654
Al       2.53652585      12.67574729       6.40764579
Al       2.53619432      14.79940667       4.26196153
Al       0.00562232      12.69883723       8.51821187
Al       0.00320582      14.80187011      10.64906538
Al       2.53822136      12.68621793      10.65872435
Al       2.52589265      14.80314380       8.51485866
Al       0.00259087      12.69264818      12.77727252
Al      -0.00523363      14.80636729      14.92666579
Al       2.52567931      12.69751045      14.92662200
Al       2.51000061      14.79420305      12.78878345
Al       5.05723519      -0.00161799      -0.00772947
Al       5.05573408       2.11970485       2.13042930
Al       7.58759882       0.00192956       2.10939735
Al       7.59785870       2.10811902       0.00091807
Al       5.06350642       0.01773848       4.25837020
Al       5.04914614       2.12415542       6.39800702
Al       7.57711073       0.01634035       6.40183931
Al       7.58470545       2.12821698       4.26938623
Al       5.05393422       0.00724642       8.52142668
Al       5.06655033       2.12549657      10.65468394
Al       7.59251038       0.00516811      10.66790312
Al       7.58708253       2.12260871       8.52240888
Al       5.07872077       0.00841675      12.79777018
Al       5.05641827       2.12683994      14.90923691
Al       7.59306220       0.01358159      14.90357065
Al       7.61488288       2.12524262      12.77892316
Al       5.05846887       4.21999965       0.00616382
Al       5.07297168       6.35195511       2.12878395
Al       7.59624596       4.23441033       2.13275321
Al       7.60000257       6.34797488      -0.01559059
Al       5.05806229       4.22619560       4.25450660
Al       5.06500800       6.35571528       6.38806069
Al       7.58703014       4.22824263       6.38024908
Al       7.59952863       6.35706934       4.24586106
Al       5.05804666       4.21938380       8.50519752
Al       5.07291662       6.35401604      10.66954669
Al       7.60997447       4.23180288      10.65273314
Al       7.59570791       6.33621429       8.50807878
Al       5.06745811       4.23132463      12.77302079
Al       5.07272818       6.33814667      14.90950106
Al       7.58736982       4.23241449      14.92287697
Al       7.60068092       6.33816957      12.79536366
Al       5.08129357       8.46159688       0.00009083
Al       5.06687623      10.57278982       2.14030400
Al       7.59341468       8.44064472       2.14300154
Al       7.59098692      10.57072064       0.02786243
Al       5.06438634       8.46765222       4.25885234
Al       5.05897402      10.55040451       6.39528674
Al       7.58958418       8.48541143       6.38445858
Al       7.59359208      10.57269265       4.26747747
Al       5.07338641       8.45025299       8.52661487
Al       5.06775380      10.57266227      10.66186609
Al       7.59769146       8.46841876      10.65339247
Al       7.61180581      10.56144813       8.51140832
Al       5.07982186       8.45209332      12.77568554
Al       5.07366389      10.57759014      14.91632364
Al       7.60070451       8.48325869      14.90929140
Al       7.60103587      10.57906795      12.78213208
Al       5.06963255      12.68748897      -0.00170796
Al       5.06144875      14.80113266       2.13136515
Al       7.59592843      12.68449229       2.13755992
Al       7.59412341      14.80997583       0.00497656
Al       5.07343695      12.70745151       4.27225394
Al       5.05356374      14.82466042       6.39356255
Al       7.58926119      12.69278616       6.39256502
Al       7.60852396      14.79967350       4.26566374
Al       5.07316675      12.69694664       8.52252088
Al       5.08248671      14.79002168      10.66589089
Al       7.60656419      12.66921152      10.65676257
Al       7.58748315      14.80750125       8.53471872
Al       5.06437336      12.69658615      12.79643692
Al       5.06968574      14.81905827      14.91736911
Al       7.60409283      12.69658147      14.91797697
Al       7.58949493      14.80269126      12.79126740
Al      10.15175951       0.00824551      -0.00090751
Al      10.13297209       2.14156636       2.13187880
Al      12.65351910      -0.01344982       2.12623087
Al      12.66716233       2.12071328       0.01389268
Al      10.12346794      -0.01533467       4.25099690
Al      10.13157603       2.11723440       6.39882386
Al      12.68203713      -0.00453649       6.38044113
Al      12.68060977       2.12616684       4.27929646
Al      10.09880925       0.00238711       8.52964022
Al      10.12790052       2.11228727      10.66127912
Al      12.64696698      -0.00310869      10.66208567
Al      12.65471344       2.13467767       8.52844570
Al      10.13327048      -0.00453360      12.78597606
Al      10.13759200       2.10749652      14.91389490
Al      12.67395270      -0.01509459      14.90513915
Al      12.68385715       2.11797173      12.78992297
Al      10.12952621       4.21764440       0.00390736
Al      10.13697810       6.34283658       2.13271715
Al      12.65569633       4.23061068       2.13709398
Al      12.67066112       6.35530060       0.02186388
Al      10.12891312       4.22897543       4.25383427
Al      10.13109539       6.34000616       6.39193573
Al      12.67473970       4.22659162       6.38961164
Al      12.66362553       6.34527887       4.26846105
Al      10.13479076       4.23476648       8.51205836
Al      10.12358823       6.33947439      10.65141359
Al      12.65496136       4.22541323      10.65698724
Al      12.65335931       6.33402307       8.52957120
Al      10.14305168       4.22584429      12.76973412
Al      10.14306470       6.34501659      14.94126364
Al      12.63754289       4.22142263      14.90809550
Al      12.65717414       6.34770404      12.79347135
Al      10.11774842       8.48011092      -0.01268515
Al      10.12364736      10.56878327       2.12686563
Al      12.65595986       8.45182418       2.11011591
Al      12.66922230      10.58756879       0.00459477
Al      10.12869648       8.44687254       4.25697407
Al      10.11190021      10.56653126       6.37149283
Al      12.68117171       8.48471729       6.40075760
Al      12.66424024      10.57552475       4.27120869
Al      10.12972941       8.46077511       8.51043434
Al      10.13263802      10.58958498      10.65110704
Al      12.65850457       8.43977529      10.66070687
Al      12.66460443      10.57091581       8.51271872
Al      10.12938427       8.46039582      12.79386160
Al      10.14384042      10.56129711      14.90697007
Al      12.64509415       8.44790534      14.92623394
Al      12.67070916      10.57590531      12.78275061
Al      10.12075635      12.69932105      -0.01124136
Al      10.12241967      14.79491858       2.12734051
Al      12.65977714      12.68732065       2.10550504
Al      12.65609246      14.80674179       0.00501267
Al      10.13921844      12.68778398       4.26339472
Al      10.14780822      14.78786961       6.39646238
Al      12.65557665      12.68517917       6.40555009
Al      12.66498123      14.80607355       4.27598661
Al      10.12956437      12.68565924       8.53104757
Al      10.13658286      14.80612085      10.62004976
Al      12.66376927      12.67436400      10.65941435
Al      12.65910279      14.80851699       8.53120807
Al      10.13308181      12.68849263      12.78308294
Al      10.11413326      14.79929218      14.90880962
Al      12.66370813      12.69002269      14.92337883
Al      12.67375730      14.80052077      12.78179315
Al      15.19530917      -0.00099982       0.00209726
Al      15.19893572       2.13738141       2.13838353
Al      17.72064411       0.01323968       2.11845057
Al      17.74430412       2.09769783       0.00168178
Al      15.22400259       0.01199938       4.28001017
Al      15.20092402       2.11570481       6.39772989
Al      17.72997793      -0.01326421       6.38701006
Al      17.73515777       2.10301130       4.26597370
Al      15.19889012       0.01001154       8.52611026
Al      15.20341612       2.11578637      10.64941838
Al      17.73794723       0.03375168      10.65524010
Al      17.73513336       2.11323952       8.52578989
Al      15.19089615       0.00043171      12.79580515
Al      15.19470898       2.10896378      14.91178824
Al      17.72576799      -0.00319656      14.91352234
Al      17.71809303       2.10945021      12.79251094
Al      15.22162657       4.23280900       0.00745711
Al      15.20591314       6.36298441       2.13784006
Al      17.73591526       4.22420332       2.14026848
Al      17.72486391       6.33943333       0.00425723
Al      15.19230193       4.20903029       4.27700358
Al      15.18480375       6.33469826       6.38372839
Al      17.72914749       4.23516726       6.40212490
Al      17.73719833       6.35718173       4.26520434
Al      15.18483342       4.22086991       8.53740261
Al      15.19779979       6.35616473      10.64394587
Al      17.72939965       4.21756205      10.66464827
Al      17.71931819       6.35210226       8.51857327
Al      15.19292698       4.20342197      12.78254127
Al      15.18608066       6.37680593      14.91184632
Al      17.72001070       4.22730037      14.92101546
Al      17.71199519       6.34859976      12.79885377
Al      15.19198270       8.44408430      -0.01576897
Al      15.20019555      10.57447856       2.14186130
Al      17.71340268       8.47172515       2.12428010
Al      17.72885448      10.57486113       0.00406995
Al      15.21168159       8.45402777       4.26426440
Al      15.20489163      10.56540961       6.39355201
Al      17.71300181       8.46870752       6.39383618
Al      17.71970370      10.56421053       4.27233404
Al      15.21245334       8.45405425       8.54346243
Al      15.21040006      10.56097113      10.63900558
Al      17.72206202       8.45198562      10.65227944
Al      17.73697664      10.57503129       8.52621065
Al      15.19084837       8.46922782      12.78516874
Al      15.16623583      10.57833425      14.94207808
Al      17.72041810       8.44395306      14.90872617
Al      17.70525990      10.58693997      12.77949496
Al      15.20101860      12.68951369      -0.00144993
Al      15.20274534      14.80087329       2.14252054
Al      17.72097539      12.69736845       2.12687620
Al      17.72641458      14.81349096      -0.01917828
Al      15.19127683      12.70366337       4.26735319
Al      15.19536142      14.82639463       6.39451252
Al      17.72648931      12.69751612       6.39065689
Al      17.72879778      14.80767145       4.26416188
Al      15.18338629      12.69996653       8.51546704
Al      15.21069627      14.80059873      10.67201612
Al      17.72199551      12.66826781      10.66988774
Al      17.71608836      14.80255812       8.53024620
Al      15.20498974      12.70325106      12.79446870
Al      15.19954192      14.80312977      14.91516544
Al      17.72818112      12.69961410      14.93013065
Al      17.74396138      14.80815643      12.78043440
