256
Lattice="26.600037156353363 0.0 0.0 0.0 23.916584970214195 0.0 0.0 0.0 19.981357757997426" Properties=species:S:1:pos:R:3 id=sample_001929 pbc="F F F"
Si       0.02354482       0.00522048      -0.00737998
Si      -0.01423504       2.98665227       2.50885791
Si       3.33891657      -0.00657111       2.49887727
Si       3.31500034       2.98714953      -0.02458234
Si       0.00429854       0.02046249       4.98977037
Si       0.01122201       3.00948058       7.48974871
Si       3.30808144      -0.00558188       7.47753034
Si       3.34507222       3.01573201       5.00611306
Si      -0.01025871       0.00438892       9.99929031
Si      -0.01315200       2.97185268      12.47939778
Si       3.30772398       0.01218881      12.51468324
Si       3.33941770       2.99612166       9.98034964
Si       0.02196989       0.01831861      14.99114810
Si      -0.00271691       3.00205646      17.48426755
Si       3.33970046       0.02802197      17.48600053
Si       3.31998406       2.96825154      14.97128032
Si      -0.00832376       5.96515504      -0.01704372
Si      -0.00476043       8.96653970       2.53442957
Si       3.34367180       5.99315106       2.51184038
Si       3.33030633       8.99439532       0.00194409
Si      -0.00780413       6.00029371       4.99928730
Si       0.03158209       8.97869537       7.49854271
Si       3.32924688       5.99392714       7.49894398
Si       3.32296642       8.96096646       4.97741244
Si      -0.00630895       5.97742728       9.97740815
Si       0.00507611       8.97186066      12.48888079
Si       3.33171453       5.96292329      12.50281038
Si       3.33487517       8.96124451       9.97313915
Si       0.02128385       5.97888700      14.99469362
Si      -0.00644830       8.95544968      17.48218457
Si       3.28866150       5.97179887      17.49213820
Si       3.31884781       8.96716548      14.98149023
Si       0.01253025      11.98004243      -0.00612950
Si       0.03030333      14.95905937       2.52108138
Si       3.33232517      11.94335977       2.50749520
Si       3.30901467      14.94918880       0.01277420
Si      -0.00595732      11.96814224       4.98484517
Si       0.00591478      14.92976512       7.50171753
Si       3.30288038      11.95268335       7.50471282
Si       3.34030880      14.94308474       4.97909149
Si      -0.00927336      11.96742869      10.01973241
Si       0.00439464      14.94931890      12.47203952
Si       3.33433367      11.96073963      12.49219447
Si       3.33772355      14.95003651       9.98793172
Si      -0.00014789      11.95163945      14.96205764
Si      -0.00979030      14.95279575      17.48102487
Si       3.31303747      11.96162938      17.50131033
Si       3.30546330      14.94709058      14.97669819
Si      -0.00176203      17.95832782       0.02084636
Si      -0.01780949      20.90344529       2.47708288
Si       3.33209589      17.91086426       2.50190962
Si       3.32963103      20.93569503       0.03034779
Si       0.00268984      17.96000053       4.97959333
Si      -0.00254010      20.89371300       7.52015598
Si       3.35187710      17.96156731       7.48102002
Si       3.29541369      20.93363692       4.97761588
Si      -0.00828102      17.90013616       9.98884020
Si      -0.00859913      20.92425730      12.50200297
Si       3.35081512      17.94800253      12.50299508
Si       3.33371482      20.90574114       9.97952387
Si       0.00176822      17.95010882      14.99256840
Si       0.00814080      20.93030641      17.46825487
Si       3.30850524      17.95503650      17.47903344
Si       3.31216265      20.93174297      14.96991353
Si       6.64718797       0.01333010       0.01468872
Si       6.63915341       3.00858024       2.50621832
Si       9.98116484       0.00552924       2.48186542
Si      10.00278166       3.00807208      -0.02666914
Si       6.63376969       0.00400426       4.98525251
Si       6.64908113       2.97275894       7.48173633
Si       9.96971062      -0.01063319       7.49499771
Si       9.97481168       3.00346734       4.96914234
Si       6.66101424      -0.00457717      10.00911014
Si       6.65371248       2.98646158      12.50015994
Si       9.96126933      -0.01179148      12.47136054
Si       9.99920914       3.00504020       9.98994508
Si       6.64786723       0.01803130      14.98160378
Si       6.61983046       2.99374215      17.47582958
Si       9.99260329       0.00572467      17.49111027
Si       9.98109217       3.03214585      14.99123419
Si       6.63801534       5.96631994      -0.00970324
Si       6.64956193       8.95054902       2.50055002
Si       9.98344658       5.98251621       2.46129793
Si      10.00057893       8.98232159       0.00879670
Si       6.65398577       5.97268999       4.99242479
Si       6.65478105       8.98966614       7.49225608
Si       9.95686115       5.97281893       7.47140685
Si       9.95584097       9.00159350       4.97432795
Si       6.64870876       5.96650262       9.97649853
Si       6.67357456       8.97068246      12.50433365
Si       9.98174194       5.98008710      12.48040634
Si       9.98209890       8.98445135       9.97558201
Si       6.64690898       5.98381589      14.98646299
Si       6.62320814       8.93520877      17.48772200
Si       9.97411828       5.97914134      17.46819877
Si       9.97053419       8.95677285      14.98757725
Si       6.63030018      11.97868483      -0.01306401
Si       6.64086522      14.95602265       2.48433605
Si       9.97170977      11.95796395       2.49252277
Si       9.98652278      14.97323361      -0.02665357
Si       6.66917388      11.97105959       5.00366666
Si       6.65242546      14.93981899       7.49646925
Si       9.99199242      11.95964401       7.48078032
Si       9.97085613      14.94807727       4.98061901
Si       6.64948685      11.97289611       9.99231331
Si       6.65196071      14.95607354      12.49906078
Si       9.96261735      11.94989999      12.45636175
Si       9.96684951      14.94161244       9.98108884
Si       6.65170954      11.95887506      14.97572678
Si       6.63519883      14.95065704      17.49901524
Si       9.98219645      11.95796028      17.48968567
Si       9.97567506      14.95610026      14.99576912
Si       6.65963766      17.93204046       0.00722859
Si       6.64672647      20.93476759       2.47377688
Si       9.95971147      17.93598229       2.49417899
Si       9.95628385      20.93115263      -0.00637502
Si       6.62577679      17.94216528       5.00393114
Si       6.64142058      20.92035820       7.47509525
Si       9.95121666      17.93533191       7.49312954
Si       9.99448736      20.91098196       4.99005904
Si       6.62818903      17.91366231       9.98808618
Si       6.64210819      20.91705302      12.49302770
Si      10.00718310      17.92553538      12.50695533
Si       9.96143420      20.93731025       9.99002307
Si       6.64728667      17.92263216      15.01146599
Si       6.67668241      20.90769272      17.48073563
Si       9.97050321      17.93779021      17.46336457
Si       9.98833794      20.93219448      14.97493786
Si      13.31214434       0.00481999       0.01360021
Si      13.32346181       2.99949600       2.50824566
Si      16.63652493      -0.00330273       2.48501709
Si      16.62661115       2.98841501      -0.02000773
Si      13.31065790       0.00276654       4.98426043
Si      13.30069181       2.99413475       7.47071034
Si      16.64873856       0.01110118       7.51673807
Si      16.61462562       3.01048037       4.98548654
Si      13.30647175       0.00208800       9.97586419
Si      13.28413113       3.00425486      12.49989841
Si      16.61267721       0.00577877      12.46985152
Si      16.64435116       2.98842602       9.99492081
Si      13.28390179       0.00712742      14.98023129
Si      13.29939241       2.96655789      17.49153559
Si      16.61873894       0.01715187      17.49588591
Si      16.61123696       2.99575910      14.96973758
Si      13.30265524       5.97307356      -0.01762064
Si      13.30086963       8.95887232       2.49647974
Si      16.59766315       5.96990827       2.51374950
Si      16.60588629       8.98630994       0.02477649
Si      13.30900541       5.99769042       4.97333983
Si      13.30261189       8.95560790       7.50651251
Si      16.61492301       5.97551942       7.49826075
Si      16.65757270       8.93763005       5.01392931
Si      13.28746087       5.98697604       9.98593508
Si      13.31938980       8.97590341      12.47606447
Si      16.62476763       5.98264000      12.48553290
Si      16.61615019       8.97549665       9.99350030
Si      13.29150561       5.98739400      14.99268393
Si      13.31450132       8.98637359      17.50264719
Si      16.64388335       5.98331460      17.49631954
Si      16.63157927       8.97345986      15.00357618
Si      13.29510057      11.96171270      -0.02075478
Si      13.30525356      14.93676075       2.50516291
Si      16.63741442      11.94139023       2.52538955
Si      16.62389360      14.93131409      -0.02979646
Si      13.30839430      11.94232288       5.01748840
Si      13.30600114      14.95096644       7.49070413
Si      16.62503364      11.94796456       7.48653139
Si      16.59191020      14.93678695       4.99856237
Si      13.30015712      11.95517220      10.01423666
Si      13.28000075      14.96791764      12.50846802
Si      16.62773210      11.98285465      12.47731776
Si      16.64921221      14.96146203       9.98908948
Si      13.28855170      11.95373988      15.00436292
Si      13.27929622      14.92449157      17.49543253
Si      16.63833089      11.94154440      17.48667924
Si      16.61170985      14.96852933      14.99362893
Si      13.27911726      17.94011243      -0.00177215
Si      13.29707779      20.92553243       2.48113258
Si      16.62745181      17.93564835       2.48898202
Si      16.63201936      20.91678629      -0.01651073
Si      13.31243473      17.94254375       4.98026605
Si      13.29783463      20.92174564       7.47754083
Si      16.64392689      17.93667842       7.50800390
Si      16.62494624      20.89699449       4.99110182
Si      13.30210619      17.94128601      10.00765417
Si      13.30383103      20.91716442      12.49443089
Si      16.61404949      17.95791762      12.49662414
Si      16.62940668      20.91580133       9.98482752
Si      13.31788697      17.95293481      14.98292861
Si      13.29290272      20.91317984      17.45592958
Si      16.59941209      17.93672426      17.49382336
Si      16.64699904      20.92819389      14.99753472
Si      19.94691563      -0.01768050       0.01177511
Si      19.97602182       2.98744046       2.48128425
Si      23.27593736      -0.00180002       2.49468112
Si      23.27456139       2.99041398      -0.01368787
Si      19.94657458      -0.00292154       4.98978831
Si      19.96021666       2.97216051       7.50406981
Si      23.24349424       0.00524121       7.48259858
Si      23.26108290       2.99711662       4.99479990
Si      19.95394018      -0.00134081       9.99299940
Si      19.94868553       2.97561549      12.47841365
Si      23.26462613       0.01763890      12.46790502
Si      23.26034478       3.00074895       9.98524334
Si      19.92739932      -0.01123437      14.98425580
Si      19.96552410       2.99130002      17.48629350
Si      23.26656624      -0.00339928      17.49982968
Si      23.27290359       2.98256629      14.99657942
Si      19.96418571       6.01380511       0.00207841
Si      19.94433619       8.99063187       2.50875119
Si      23.27888275       5.99234708       2.48863372
Si      23.30564191       8.97348187      -0.01311529
Si      19.94225571       5.97490722       4.97062842
Si      19.95174570       8.99748932       7.49743386
Si      23.27470054       5.99092121       7.51291224
Si      23.26004050       8.97695904       4.97333105
Si      19.96028640       5.97600130       9.98407746
Si      19.95510746       8.96734584      12.49642808
Si      23.28645511       5.99640792      12.51709715
Si      23.26899916       8.98008017       9.96447462
Si      19.95886330       5.97270503      14.99540798
Si      19.95556408       8.98089458      17.49088445
Si      23.28835172       5.96941809      17.47256660
Si      23.29016196       8.97284211      15.01414341
Si      19.93769558      11.97653029      -0.00069334
Si      19.96066597      14.94273969       2.50349819
Si      23.27512175      11.94951883       2.50313875
Si      23.26035974      14.93575086       0.00119864
Si      19.95905963      11.94374087       4.98046868
Si      19.93211708      14.95974197       7.50652927
Si      23.26245390      11.95691107       7.49084459
Si      23.27818262      14.97352209       5.00655025
Si      19.95520461      11.94888444      10.00602683
Si      19.97857934      14.93071577      12.48780397
Si      23.29259316      11.94313186      12.47717585
Si      23.26494352      14.94552133       9.98877351
Si      19.92544594      11.97095218      14.98533284
Si      19.95246921      14.94583427      17.46825514
Si      23.27909467      11.98583618      17.47302460
Si      23.28984661      14.92589034      14.97214784
Si      19.93662554      17.92575088      -0.01735583
Si      19.95270459      20.94122848       2.51382426
Si      23.26409968      17.94562460       2.48649355
Si      23.28962389      20.91582219      -0.00559391
Si      19.94916074      17.94379509       4.98171702
Si      19.95179396      20.91949411       7.50710699
Si      23.27028517      17.94387431       7.48239493
Si      23.27831006      20.93437518       5.00912916
Si      19.95136195      17.92411927      10.01075646
Si      19.97791213      20.91245223      12.48328144
Si      23.26583059      17.91479970      12.50322356
Si      23.24978115      20.91608038      10.00980905
Si      19.95746038      17.90774936      14.99904287
Si      19.96553727      20.91126617      17.47261864
Si      23.28551008      17.92307917      17.46429571
Si      23.28437864      20.92925258      14.97662784
