108
Lattice="13.801452454678703 0.0 0.0 0.0 13.111331478071616 0.0 0.0 0.0 10.582564156437476" Properties=species:S:1:pos:R:3 id=sample_001872 pbc="F F F"
Cu      -0.01437152      -0.02071584       0.00013370
Cu       0.00080416       2.19521342       1.78214140
Cu       2.30508649       0.01729732       1.77074006
Cu       2.31211836       2.19761082       0.01076294
Cu      -0.01250155       0.00758806       3.51599991
Cu      -0.00649405       2.19929082       5.27376863
Cu       2.29271099      -0.02018350       5.29074674
Cu       2.32166428       2.19461374       3.52024160
Cu      -0.00750355      -0.00034845       7.06627550
Cu      -0.01509601       2.19120443       8.81469532
Cu       2.28536676      -0.00308549       8.80516147
Cu       2.30608178       2.16894413       7.05405868
Cu      -0.00590278       4.37772923      -0.00418065
Cu      -0.00186328       6.54961905       1.76230975
Cu       2.29322711       4.38160437       1.76951061
Cu       2.30529748       6.53799785      -0.00517503
Cu      -0.00028736       4.36102726       3.54053749
Cu       0.00736946       6.55059157       5.27959871
Cu       2.28931046       4.39995216       5.29754847
Cu       2.30665900       6.57651257       3.53948796
Cu       0.01287697       4.35502492       7.06476656
Cu      -0.00803735       6.54712340       8.83330925
Cu       2.29405017       4.37651717       8.81553113
Cu       2.31998903       6.56100226       7.05905643
Cu       0.00611311       8.73575580      -0.02615841
Cu       0.02445873      10.92920337       1.76232907
Cu       2.30383780       8.74385390       1.74608433
Cu       2.29314873      10.91053334      -0.01348692
Cu      -0.00854264       8.73966959       3.53596933
Cu       0.02181470      10.91430803       5.29524590
Cu       2.31631362       8.74395875       5.30052066
Cu       2.30225026      10.94380907       3.53100549
Cu       0.01610554       8.74283982       7.04609081
Cu       0.02819537      10.94216558       8.82058345
Cu       2.28415174       8.75102853       8.80704303
Cu       2.29821360      10.92531100       7.07836819
Cu       4.59322675      -0.01798713       0.01625368
Cu       4.58824214       2.17471714       1.75399664
Cu       6.90766083       0.00768602       1.77003576
Cu       6.89190302       2.18446106       0.00781440
Cu       4.60216138      -0.00071555       3.51552877
Cu       4.58710833       2.18051137       5.29204890
Cu       6.89468704       0.00314891       5.29884601
Cu       6.90331491       2.16700090       3.51920010
Cu       4.59543368       0.00151274       7.04593963
Cu       4.60604408       2.18875867       8.81923803
Cu       6.91413044       0.00121822       8.81152997
Cu       6.88595128       2.18049181       7.05760894
Cu       4.59410888       4.37616308       0.00218672
Cu       4.60297793       6.55465972       1.76008237
Cu       6.87990055       4.38041784       1.76543900
Cu       6.91014411       6.55578326       0.01202992
Cu       4.59893116       4.35845026       3.52935164
Cu       4.59618113       6.56260076       5.27440774
Cu       6.91685597       4.37884920       5.31252356
Cu       6.90125187       6.54787076       3.53490557
Cu       4.58089096       4.36706717       7.05767620
Cu       4.58657787       6.54779109       8.83295735
Cu       6.89852134       4.37754980       8.81878980
Cu       6.90764922       6.56127431       7.06500176
Cu       4.61934308       8.72791411       0.00647865
Cu       4.60456598      10.92548411       1.77213433
Cu       6.91715610       8.75136775       1.77925170
Cu       6.89197168      10.93565636       0.00498740
Cu       4.59332664       8.74723217       3.53728875
Cu       4.60059954      10.93503333       5.28858068
Cu       6.89265758       8.72318082       5.30847244
Cu       6.91408900      10.92535883       3.52372452
Cu       4.59508852       8.73956181       7.05048917
Cu       4.61326419      10.93588130       8.79625948
Cu       6.89774104       8.73901473       8.81176843
Cu       6.90380147      10.92059791       7.06142504
Cu       9.20414751      -0.00342311       0.00859105
Cu       9.20870603       2.19381969       1.75836753
Cu      11.48820345      -0.02300360       1.77100142
Cu      11.52666626       2.17593601       0.01065045
Cu       9.20950303       0.00251711       3.51865529
Cu       9.20531466       2.18150268       5.29582320
Cu      11.51249639       0.00509638       5.27713388
Cu      11.50262933       2.17638397       3.51418337
Cu       9.19686096       0.00425794       7.06205713
Cu       9.19420456       2.18469938       8.82489201
Cu      11.48551542      -0.00257293       8.81519716
Cu      11.50116992       2.18813390       7.06738183
Cu       9.22459350       4.36460824       0.00268495
Cu       9.18910145       6.57189203       1.78168784
Cu      11.51210466       4.37685518       1.75294694
Cu      11.50396767       6.56788685      -0.01223923
Cu       9.20366473       4.35849942       3.51931277
Cu       9.21156029       6.55194356       5.29340109
Cu      11.51485902       4.37519620       5.29373312
Cu      11.48992193       6.56243912       3.52015748
Cu       9.20753049       4.38431978       7.04945894
Cu       9.18004330       6.54929286       8.80945816
Cu      11.49385052       4.36493497       8.80278368
Cu      11.50350907       6.55174027       7.05966618
Cu       9.20418728       8.73518037       0.01472367
Cu       9.19897191      10.90579655       1.75780053
Cu      11.47901193       8.74996555       1.75112175
Cu      11.48145875      10.91933019       0.00537298
Cu       9.18005715       8.73975390       3.53404313
Cu       9.20211386      10.93848115       5.28803538
Cu      11.50140524       8.73836637       5.30020254
Cu      11.51422343      10.91898701       3.53447118
Cu       9.17939812       8.74879547       7.04957235
Cu       9.21603363      10.90698665       8.82455901
Cu      11.50538849       8.72546041       8.83947203
Cu      11.50713731      10.91243261       7.05516906
