500
Lattice="24.526683402123627 0.0 0.0 0.0 23.962485719095213 0.0 0.0 0.0 22.50802893721145" Properties=species:S:1:pos:R:3 id=sample_001058 pbc="F F F"
Al       0.00337546      -0.00326226      -0.00025969
Al      -0.01478853       2.39299706       2.27014166
Al       2.43724455      -0.02383313       2.24892881
Al       2.44530250       2.40245281       0.01164149
Al       0.01090237       0.00719950       4.49358483
Al      -0.01782950       2.40015487       6.75125062
Al       2.43290994      -0.00959561       6.73746235
Al       2.46467558       2.39181148       4.48914839
Al      -0.00718094      -0.01798216       8.99211133
Al      -0.01302060       2.36885880      11.24285564
Al       2.46171440       0.03381025      11.26761132
Al       2.42973456       2.39148271       9.01030643
Al      -0.00028230      -0.02634961      13.51981207
Al      -0.00922960       2.38409987      15.76018939
Al       2.44644452      -0.01953190      15.73470415
Al       2.46081094       2.39137293      13.50467225
Al       0.01221733       0.00895644      18.01986878
Al      -0.00812562       2.39649293      20.26286318
Al       2.46522151       0.01305847      20.27965893
Al       2.44561070       2.39509621      18.01651968
Al       0.00081308       4.81190084       0.03102869
Al       0.01296377       7.19748145       2.24298208
Al       2.43700089       4.77765628       2.24054100
Al       2.44427395       7.19703307      -0.00763292
Al       0.00307389       4.77331933       4.47628993
Al       0.02458874       7.17316782       6.74311329
Al       2.45046237       4.78038928       6.75108949
Al       2.46640624       7.15563084       4.49316510
Al       0.00902569       4.82588198       8.99286769
Al       0.00813247       7.18205059      11.30390616
Al       2.46333670       4.79414537      11.26863571
Al       2.43200562       7.18729859       9.01599947
Al       0.00767457       4.77991060      13.51884623
Al       0.00135175       7.19409480      15.75651605
Al       2.46856321       4.77826441      15.75579895
Al       2.44111329       7.18351400      13.48953800
Al      -0.00399188       4.78537439      17.99715163
Al       0.01373240       7.17500523      20.22931823
Al       2.45995060       4.82098995      20.26846212
Al       2.44503379       7.19249381      18.00683824
Al       0.02072521       9.58224373       0.02103583
Al       0.00794754      11.97820520       2.26259054
Al       2.45759854       9.57129297       2.28253093
Al       2.45465964      11.96702305      -0.00915697
Al      -0.01292162       9.57681017       4.51787873
Al       0.00880453      11.97757414       6.75867856
Al       2.48580660       9.59857544       6.76706413
Al       2.48248126      11.98177300       4.50465384
Al       0.00831059       9.59072889       8.99349003
Al       0.01880637      11.95443050      11.24158800
Al       2.44983990       9.58971892      11.26684904
Al       2.44202266      11.98921505       9.02078991
Al      -0.00495750       9.58921710      13.50311605
Al      -0.01365365      11.98966737      15.75347161
Al       2.42403114       9.55575782      15.77008122
Al       2.44628351      11.96772754      13.50145527
Al       0.00587482       9.59053057      18.03127777
Al       0.00142808      11.98738154      20.28611888
Al       2.44850790       9.58508455      20.25143995
Al       2.48002704      11.95511725      18.04047930
Al       0.00868032      14.36641726       0.00444211
Al       0.01230664      16.78908697       2.25722532
Al       2.44732485      14.39299964       2.23519536
Al       2.47271750      16.75100653      -0.00507075
Al      -0.01944557      14.38242970       4.51683058
Al       0.01285367      16.77958016       6.75488428
Al       2.46826976      14.36296208       6.76418191
Al       2.46848777      16.76597973       4.51442962
Al      -0.02821925      14.36365746       9.00345859
Al       0.00002875      16.75876921      11.24656249
Al       2.44625909      14.39233922      11.25905591
Al       2.47639548      16.77005097       8.99982596
Al       0.00106999      14.38074105      13.50634288
Al      -0.01244297      16.79907971      15.74785445
Al       2.46504678      14.36728310      15.75748245
Al       2.45951659      16.75676253      13.50838976
Al       0.00996918      14.36802899      18.01262122
Al      -0.02717660      16.76501534      20.25168028
Al       2.43321509      14.35835523      20.26480112
Al       2.45158252      16.78558015      18.00533785
Al       0.02461087      19.19801106      -0.00142187
Al      -0.02075778      21.57079139       2.24752897
Al       2.44915652      19.16583302       2.24542630
Al       2.44966372      21.59470986      -0.02866166
Al       0.02697354      19.15406372       4.48712216
Al       0.03007877      21.57918137       6.75724646
Al       2.45343443      19.15890075       6.76573126
Al       2.45748671      21.57270114       4.50974680
Al      -0.01114442      19.17346860       8.99481318
Al      -0.02178093      21.57548466      11.22923942
Al       2.46360444      19.17150202      11.26070832
Al       2.44869780      21.56783030       8.96964291
Al       0.01219406      19.16517235      13.52775172
Al      -0.02332032      21.55871550      15.76485636
Al       2.46711772      19.17530884      15.76173177
Al       2.46582458      21.56571163      13.51127052
Al      -0.00268821      19.17144367      18.02264191
Al       0.00287679      21.59231844      20.25110266
Al       2.47154837      19.18603263      20.25580551
Al       2.47042057      21.58398702      18.00931330
Al       4.89252715       0.01912788       0.00108075
Al       4.91218922       2.40074036       2.28034777
Al       7.34068695      -0.02178611       2.23287787
Al       7.36262316       2.40227966      -0.00622427
Al       4.90160454       0.01248925       4.48041521
Al       4.91202812       2.40113804       6.73637478
Al       7.36066577      -0.00106629       6.75869557
Al       7.35787373       2.38931301       4.50399792
Al       4.88418547      -0.00046410       8.99751445
Al       4.89433720       2.37986294      11.23688053
Al       7.37704914      -0.02131236      11.24628758
Al       7.37842113       2.40428318       8.99945016
Al       4.90322710       0.00330408      13.50107178
Al       4.91020727       2.38813987      15.75080459
Al       7.36917770      -0.02379599      15.77018049
Al       7.35365536       2.39778619      13.49022492
Al       4.89913122       0.01631270      18.01711277
Al       4.90089406       2.38582474      20.26147747
Al       7.36256358      -0.02159042      20.25737588
Al       7.35312790       2.38883532      18.02415946
Al       4.90146773       4.77537825       0.00593813
Al       4.88252137       7.16904011       2.25624007
Al       7.36702544       4.78468542       2.25429557
Al       7.35176626       7.17739026       0.00227756
Al       4.88365522       4.80703207       4.50522968
Al       4.90533894       7.21016723       6.77190630
Al       7.36452343       4.80455029       6.73746747
Al       7.37488504       7.19880974       4.50528750
Al       4.89857298       4.78892235       9.00844228
Al       4.89339680       7.19221775      11.24373808
Al       7.35526995       4.78944625      11.26072967
Al       7.36761099       7.19902679       9.02638049
Al       4.92336177       4.76497960      13.49929608
Al       4.89109792       7.19988920      15.74785697
Al       7.36921968       4.80591833      15.75373654
Al       7.36188641       7.18806632      13.50298721
Al       4.90458817       4.77915355      17.99871460
Al       4.89363119       7.16920709      20.25249460
Al       7.35227061       4.79026371      20.27413915
Al       7.37153812       7.21129802      18.02714375
Al       4.91148543       9.57060170       0.03228753
Al       4.89721463      11.98607439       2.25183624
Al       7.34932234       9.58100200       2.26051518
Al       7.36854751      11.98301951       0.03493895
Al       4.91154099       9.58511877       4.51129433
Al       4.90042719      11.98707193       6.76329231
Al       7.36228518       9.59907257       6.74164688
Al       7.38607323      11.97200610       4.50318520
Al       4.91005721       9.60339287       8.97193959
Al       4.91517673      11.98582130      11.26717638
Al       7.36114100       9.56919344      11.26560162
Al       7.35391885      11.99015639       9.00583587
Al       4.92295888       9.60167525      13.49334005
Al       4.88792719      11.98326134      15.73362652
Al       7.34932829       9.58822785      15.75056959
Al       7.34143007      11.97647604      13.50156394
Al       4.91193166       9.60263151      17.99663054
Al       4.91281002      11.98836227      20.25531633
Al       7.34915257       9.60041075      20.25984410
Al       7.35057437      11.98371238      18.01801079
Al       4.92484133      14.38452732       0.00557713
Al       4.90945032      16.79748434       2.22774991
Al       7.36049159      14.38435119       2.27359520
Al       7.33597874      16.79458380       0.00165788
Al       4.88423959      14.36853667       4.48414335
Al       4.88098187      16.77619388       6.75545397
Al       7.34536444      14.38758435       6.75479221
Al       7.38915134      16.76702784       4.48217847
Al       4.91911310      14.39717742       8.99603142
Al       4.90320402      16.78883301      11.24996253
Al       7.36345939      14.39521101      11.24944244
Al       7.37260490      16.77179648       8.98976009
Al       4.90171612      14.39123566      13.51718207
Al       4.90916897      16.78916393      15.75267385
Al       7.37340500      14.38118430      15.76561767
Al       7.34610313      16.78978623      13.49503007
Al       4.89810811      14.36653436      18.04049516
Al       4.88839303      16.75852966      20.24590710
Al       7.35153178      14.38925769      20.23402052
Al       7.37422755      16.76891003      18.00416143
Al       4.93313679      19.16668419       0.00276354
Al       4.92292348      21.56740744       2.27177729
Al       7.37345136      19.16457381       2.24272696
Al       7.35377333      21.57159760       0.01984961
Al       4.89955880      19.17783519       4.50066226
Al       4.89787627      21.56359707       6.75911224
Al       7.36998694      19.15641787       6.74240061
Al       7.35053245      21.55701220       4.50957528
Al       4.89139195      19.17635721       9.01298498
Al       4.89476602      21.56531145      11.28840160
Al       7.36072446      19.14674838      11.28415577
Al       7.32952266      21.57160545       9.01150823
Al       4.91058050      19.14589231      13.53317824
Al       4.91693605      21.57203000      15.76450922
Al       7.35599633      19.18109624      15.74307950
Al       7.35827172      21.57296578      13.48289624
Al       4.90972566      19.17929740      18.00246027
Al       4.91533172      21.55931961      20.25866246
Al       7.37210676      19.16955076      20.28333985
Al       7.35750402      21.57789212      18.02321990
Al       9.81882584      -0.01052620       0.00592800
Al       9.83358355       2.38371940       2.24576747
Al      12.26265295       0.00689710       2.26289635
Al      12.23861414       2.40705671       0.00191474
Al       9.80233857       0.01554939       4.52413593
Al       9.83168994       2.39140839       6.73028987
Al      12.24439763       0.00012353       6.73110884
Al      12.27504797       2.41205497       4.47567933
Al       9.79749030       0.00205831       8.98575878
Al       9.82628081       2.37391336      11.26496470
Al      12.25871102      -0.01941996      11.22485614
Al      12.25420994       2.42256580       9.02844308
Al       9.77137957      -0.01267398      13.50880863
Al       9.82424779       2.38013981      15.76706895
Al      12.26174389       0.00578406      15.74982917
Al      12.27971023       2.40613006      13.50629433
Al       9.79486515       0.01657107      18.01731906
Al       9.82737416       2.40834776      20.28891375
Al      12.26710676      -0.00211369      20.24510190
Al      12.26308800       2.39369117      18.00365435
Al       9.81482828       4.77602795       0.00352051
Al       9.79110684       7.17259571       2.24631478
Al      12.25093114       4.78287377       2.25717362
Al      12.25036324       7.16657627      -0.00098019
Al       9.79784276       4.79613371       4.51614443
Al       9.78027144       7.18835221       6.74695553
Al      12.26735572       4.80444018       6.76946842
Al      12.27042749       7.21749145       4.51082636
Al       9.83678596       4.80335087       8.98856265
Al       9.81004377       7.18960472      11.24129248
Al      12.24648272       4.80222191      11.24626537
Al      12.28642475       7.18433816       9.00217204
Al       9.82004018       4.79980597      13.50161208
Al       9.83478995       7.18112270      15.76065862
Al      12.26081158       4.77804129      15.75160035
Al      12.27489927       7.19456671      13.52740627
Al       9.80753281       4.79842211      18.00847472
Al       9.79777240       7.20151850      20.27127044
Al      12.26492792       4.79793568      20.27059359
Al      12.24757228       7.19289308      18.00217304
Al       9.80782094       9.58205510       0.02252248
Al       9.78361300      11.99960068       2.24971612
Al      12.25401501       9.58681175       2.24929037
Al      12.26059281      11.95661651       0.00187967
Al       9.77562289       9.56990664       4.50340913
Al       9.81660885      11.98026461       6.72526338
Al      12.27214562       9.58252458       6.73971458
Al      12.26547643      11.98421235       4.49597721
Al       9.78359940       9.58937828       9.00697386
Al       9.82816262      11.96103811      11.22739140
Al      12.26396186       9.58007262      11.24935812
Al      12.25852561      11.96278863       9.00147103
Al       9.83662789       9.57907969      13.50138698
Al       9.82498178      11.97844935      15.78226176
Al      12.25848755       9.59131353      15.75965312
Al      12.24923520      11.99241055      13.49937859
Al       9.79713269       9.55127797      17.98923686
Al       9.83823649      11.98421017      20.25319837
Al      12.25715791       9.58508753      20.26755526
Al      12.27476776      12.00251477      17.98483290
Al       9.82915153      14.38289816       0.00468104
Al       9.81815042      16.78263932       2.23513844
Al      12.26801092      14.36179832       2.23437447
Al      12.27270602      16.74878771      -0.00464004
Al       9.80328221      14.38804591       4.51452267
Al       9.81515985      16.78241335       6.75028314
Al      12.26833918      14.36749312       6.76145399
Al      12.27646440      16.76798842       4.50877532
Al       9.81869199      14.39837516       8.98539975
Al       9.80360199      16.77930550      11.25307660
Al      12.25532312      14.38559123      11.23094683
Al      12.26627770      16.77944651       9.00243412
Al       9.80892582      14.37695386      13.50424684
Al       9.80887823      16.75524188      15.76905852
Al      12.23271016      14.35962831      15.74410992
Al      12.24456177      16.77864263      13.51234179
Al       9.81819613      14.38041603      18.00785410
Al       9.80454743      16.77072247      20.26065136
Al      12.27684673      14.35678916      20.25521599
Al      12.27023389      16.75986232      18.01769397
Al       9.80055150      19.16923258       0.01091868
Al       9.79257606      21.54946795       2.23616559
Al      12.25579810      19.15819709       2.26502116
Al      12.27421389      21.56033468      -0.01246376
Al       9.79661192      19.15760453       4.52520152
Al       9.78912394      21.56762467       6.75953903
Al      12.24770093      19.16814009       6.73363372
Al      12.25535139      21.57235754       4.51765143
Al       9.83129036      19.17171517       8.98779909
Al       9.81295421      21.56798041      11.23871166
Al      12.26122905      19.16577937      11.26018131
Al      12.26695309      21.56245087       9.01567471
Al       9.80030737      19.17833555      13.51436813
Al       9.78734828      21.56731835      15.74040812
Al      12.25272742      19.15992191      15.75195796
Al      12.25405174      21.57149062      13.48263614
Al       9.82055052      19.17728218      18.01567657
Al       9.80203693      21.56779531      20.28925309
Al      12.25246277      19.14798745      20.24214055
Al      12.25862522      21.58004684      18.00547391
Al      14.71399551       0.00748173      -0.00149955
Al      14.71743039       2.37794267       2.26503391
Al      17.14213422       0.01890849       2.25529481
Al      17.16118553       2.40893587       0.01273519
Al      14.69407840      -0.02009465       4.48789102
Al      14.71839631       2.39196914       6.75590115
Al      17.18070636      -0.01071153       6.75492252
Al      17.17825618       2.38657776       4.46487827
Al      14.73176960      -0.01027371       8.99325976
Al      14.71081151       2.40630643      11.26212598
Al      17.15329092       0.02410624      11.25508470
Al      17.14835155       2.38840486       8.99351459
Al      14.71210613       0.00105117      13.50361965
Al      14.73770552       2.39970818      15.76963251
Al      17.17525929      -0.01407391      15.74934764
Al      17.15533143       2.42343225      13.50219582
Al      14.72754643       0.00509262      18.01664294
Al      14.71635919       2.40630284      20.24241795
Al      17.17693278      -0.00544937      20.23972161
Al      17.17342502       2.40602666      17.99553852
Al      14.71554139       4.78453373       0.00144700
Al      14.73068588       7.18149113       2.23909335
Al      17.17578496       4.80864433       2.26427340
Al      17.15980606       7.18351686       0.01106105
Al      14.71878723       4.80641134       4.47472718
Al      14.70549232       7.18204028       6.74357612
Al      17.18629714       4.78910956       6.74024396
Al      17.15115846       7.19491994       4.52365480
Al      14.71571547       4.77345278       8.97932490
Al      14.69284522       7.19363184      11.25967283
Al      17.17056194       4.80272565      11.26644218
Al      17.15974544       7.19449827       9.00092524
Al      14.70313646       4.78183444      13.48984432
Al      14.71337378       7.20050350      15.75039962
Al      17.17279028       4.81219939      15.75276955
Al      17.16418034       7.18104207      13.50251702
Al      14.73338064       4.77560165      17.99145450
Al      14.70970846       7.18401977      20.23838200
Al      17.18277067       4.79309583      20.24904682
Al      17.18753703       7.18550185      18.03314892
Al      14.71840507       9.56811758       0.00811797
Al      14.70880194      12.00066784       2.26895036
Al      17.17651993       9.60386255       2.27464421
Al      17.18036514      11.97191711      -0.01574357
Al      14.70016078       9.58909909       4.52046361
Al      14.68033493      11.97648269       6.74263856
Al      17.17172752       9.59616500       6.75773674
Al      17.14550889      11.98393708       4.50090539
Al      14.72073682       9.57389655       8.99427805
Al      14.72785501      11.96972539      11.23923024
Al      17.17268043       9.61766141      11.27354107
Al      17.16643524      11.97040421       9.00081916
Al      14.73469755       9.57050831      13.52093761
Al      14.72860209      12.00915065      15.73358160
Al      17.16953199       9.58744334      15.76384481
Al      17.13658677      11.99288659      13.50525328
Al      14.72589546       9.59498332      17.99017242
Al      14.71144658      11.98475350      20.30178492
Al      17.16624315       9.59484665      20.27652099
Al      17.16768222      11.97563768      17.99718119
Al      14.71160668      14.38544785       0.00154700
Al      14.76159949      16.75824344       2.23037307
Al      17.16259996      14.38407473       2.23069304
Al      17.17956203      16.75769948      -0.00521390
Al      14.72065044      14.40786397       4.51468195
Al      14.70655619      16.78269191       6.73517644
Al      17.17051758      14.38377708       6.76397008
Al      17.16842991      16.77187629       4.47170444
Al      14.72483439      14.37265364       8.98815664
Al      14.71839005      16.77567928      11.24335988
Al      17.17730394      14.34814778      11.24211475
Al      17.16195727      16.75069493       8.99970163
Al      14.72336192      14.38655838      13.49168891
Al      14.71492593      16.75153746      15.74624483
Al      17.14943238      14.36198659      15.76018207
Al      17.17161311      16.75306283      13.52288298
Al      14.70880085      14.39045733      18.00660332
Al      14.69297593      16.78045977      20.27711618
Al      17.17045725      14.35787835      20.27391451
Al      17.17961897      16.77480092      18.01184417
Al      14.73551078      19.18168618      -0.01846124
Al      14.68968172      21.58115304       2.23223602
Al      17.15480389      19.17749738       2.25547254
Al      17.17317036      21.54267833       0.01965333
Al      14.71713194      19.16995694       4.51344724
Al      14.69843042      21.56649124       6.76461716
Al      17.15047056      19.18048620       6.76387070
Al      17.18940551      21.53421081       4.49778803
Al      14.71435763      19.20457553       8.98308722
Al      14.72273023      21.56250911      11.22864934
Al      17.17050957      19.15342371      11.24396737
Al      17.14565763      21.56339296       9.02270410
Al      14.71907149      19.18578475      13.49625583
Al      14.70288965      21.55624926      15.74908489
Al      17.15068945      19.17496513      15.76810309
Al      17.17665694      21.58206103      13.50064704
Al      14.70600270      19.15871437      17.99788348
Al      14.74828067      21.58100232      20.25397858
Al      17.17790189      19.17516569      20.27537882
Al      17.16673741      21.58554436      18.01459357
Al      19.62639712       0.01470224      -0.01975204
Al      19.63984306       2.37838493       2.26270922
Al      22.06224704      -0.00061682       2.26559892
Al      22.05742409       2.40437691       0.00349385
Al      19.60425890      -0.00001837       4.48540092
Al      19.60464046       2.38652240       6.76182189
Al      22.04875792       0.00225588       6.75044978
Al      22.09814293       2.40333240       4.50170153
Al      19.60888711       0.02580010       9.01451421
Al      19.62433240       2.40056074      11.23694033
Al      22.04810778      -0.01010050      11.26634130
Al      22.07802543       2.39895983       8.98181368
Al      19.63601858      -0.02015296      13.52574199
Al      19.59522468       2.38465401      15.74646484
Al      22.08638512       0.00228834      15.76603609
Al      22.08136311       2.37742336      13.51576782
Al      19.62926061      -0.01436531      18.01368213
Al      19.61955757       2.37766169      20.25885581
Al      22.05236999       0.00147273      20.23835306
Al      22.07025077       2.40052308      18.00995254
Al      19.63484415       4.78914976       0.03755160
Al      19.62250066       7.18178400       2.24892063
Al      22.10097130       4.79925548       2.23648566
Al      22.07144276       7.20159292      -0.01813362
Al      19.61014784       4.79384405       4.49079189
Al      19.63938900       7.19126632       6.75214412
Al      22.08292116       4.77472799       6.74987167
Al      22.10369797       7.18441166       4.49226519
Al      19.62830311       4.79963350       9.01574804
Al      19.63575022       7.19116703      11.26261358
Al      22.06733678       4.79891693      11.26288981
Al      22.08767470       7.16781001       9.00874681
Al      19.62196893       4.80306364      13.52636276
Al      19.60661269       7.18210695      15.76314997
Al      22.07641644       4.79530108      15.77502490
Al      22.08538175       7.18394789      13.49447505
Al      19.61360047       4.81497959      17.97703646
Al      19.62241126       7.15846368      20.23544219
Al      22.07070182       4.77520205      20.25852739
Al      22.05065632       7.17154224      17.99695144
Al      19.59987612       9.57765796       0.00801553
Al      19.61039813      11.96241662       2.26705471
Al      22.06297818       9.60539663       2.24862048
Al      22.08318982      11.98135802       0.00155931
Al      19.63505081       9.58710883       4.49095928
Al      19.61549867      11.94816541       6.74734391
Al      22.07841250       9.59596281       6.75510424
Al      22.09481192      11.98444614       4.48948006
Al      19.62019430       9.58878246       8.99840025
Al      19.63628802      12.00442968      11.24510305
Al      22.07017603       9.57940501      11.24408083
Al      22.07818488      11.96491251       9.01411137
Al      19.60673756       9.57411746      13.50031002
Al      19.63634734      11.99098427      15.73781307
Al      22.07400424       9.58060349      15.76451815
Al      22.07773047      11.98587929      13.48876379
Al      19.62929118       9.60408777      18.01126924
Al      19.62368486      11.97453405      20.26160834
Al      22.06696403       9.57879315      20.25419233
Al      22.08198086      12.01054885      18.00038243
Al      19.65311160      14.35582305       0.02734747
Al      19.59893268      16.76568624       2.25456506
Al      22.07152175      14.38893769       2.25209304
Al      22.08894659      16.77664512       0.00621323
Al      19.60403379      14.39226555       4.50292166
Al      19.63596141      16.79670749       6.75317190
Al      22.07929946      14.38228073       6.75382438
Al      22.05688470      16.76637434       4.49622948
Al      19.60046530      14.35033241       8.99986935
Al      19.62827684      16.77419168      11.27301350
Al      22.05572148      14.37915506      11.25504040
Al      22.07695992      16.75883473       9.00690747
Al      19.62639547      14.37319799      13.48845842
Al      19.60064280      16.75583014      15.75417096
Al      22.05762596      14.39805831      15.75227319
Al      22.06216996      16.78379612      13.50263197
Al      19.63235569      14.36584460      18.01561853
Al      19.61877664      16.78167938      20.23870128
Al      22.06765021      14.36725321      20.25637002
Al      22.07857582      16.78231349      18.02063568
Al      19.61496697      19.15665238      -0.00711681
Al      19.62464041      21.56793731       2.26437040
Al      22.08861882      19.19446638       2.23253448
Al      22.06648294      21.54670284      -0.01674119
Al      19.62601898      19.18718860       4.50000431
Al      19.64889282      21.57387190       6.76439104
Al      22.08227447      19.15435100       6.75521347
Al      22.05431632      21.56941466       4.49027049
Al      19.63706146      19.17101193       9.01080108
Al      19.63909180      21.56146045      11.27268607
Al      22.06167969      19.15919823      11.25838133
Al      22.08467451      21.54333927       9.00658997
Al      19.61934424      19.15103104      13.51697889
Al      19.60115655      21.59117801      15.77387999
Al      22.07105130      19.16414009      15.71669801
Al      22.09037561      21.58107693      13.50859986
Al      19.63368017      19.18140014      18.01271968
Al      19.61786617      21.60107057      20.26562973
Al      22.06287110      19.16459519      20.28151965
Al      22.09654887      21.56872498      18.02094093
