256
Lattice="15.700083247780382 0.0 0.0 0.0 17.195605469749264 0.0 0.0 0.0 19.69992580296718" Properties=species:S:1:pos:R:3 id=sample_000274 pbc="F F F"
Al      -0.00828629       0.02590455       0.01784854
Al       0.01467950       2.13344417       2.46468564
Al       1.98537694      -0.00307619       2.45651908
Al       1.96771360       2.14952884      -0.01453377
Al       0.02117641       0.04483763       4.90875449
Al       0.01047642       2.15527399       7.40933061
Al       1.95887811       0.03430719       7.37664636
Al       1.99801233       2.16244880       4.89900777
Al       0.02753698      -0.00612977       9.88279622
Al       0.04185761       2.14075240      12.33299348
Al       1.93383533      -0.01569721      12.33977701
Al       1.94366143       2.17137270       9.82609081
Al      -0.00213357      -0.00913998      14.76134972
Al      -0.01474840       2.15027088      17.24406080
Al       1.95999013       0.02322344      17.22554651
Al       1.97214123       2.17609668      14.79977159
Al      -0.00184141       4.25851341       0.01060570
Al      -0.00945095       6.44035627       2.48107843
Al       1.98538883       4.30753720       2.44164594
Al       1.96207811       6.43920414       0.00396923
Al      -0.00612314       4.28716913       4.95129478
Al      -0.00014098       6.45056136       7.40238075
Al       1.96672287       4.31274376       7.38730516
Al       1.93107932       6.45767339       4.94627764
Al       0.00609133       4.29665264       9.85660308
Al       0.00124989       6.46685470      12.27730253
Al       1.96631076       4.31303281      12.31534121
Al       1.96533451       6.44249496       9.85830343
Al       0.04224685       4.30210128      14.80755746
Al      -0.01501318       6.45019825      17.25643495
Al       1.95640851       4.31184888      17.21319544
Al       1.90522959       6.44033631      14.74831644
Al      -0.01999565       8.64365019      -0.00849678
Al       0.01882329      10.75114052       2.47793324
Al       1.95552971       8.58185206       2.45773524
Al       1.95181528      10.75391009      -0.00636626
Al      -0.00633324       8.59269176       4.91447349
Al      -0.02915001      10.75000974       7.39058865
Al       1.93093257       8.60889715       7.37006108
Al       1.95402717      10.75656823       4.93480567
Al       0.00008643       8.61803251       9.87078418
Al       0.03100455      10.74828017      12.31578532
Al       1.95024465       8.61510591      12.30947569
Al       1.95861439      10.76133664       9.87095381
Al       0.03239543       8.60716599      14.77101653
Al       0.04513345      10.74623954      17.23958417
Al       1.95835895       8.61329275      17.24430954
Al       1.97498229      10.74131973      14.76145120
Al      -0.01675044      12.89583282       0.00403793
Al       0.01344896      15.03210769       2.47215701
Al       1.91704032      12.88204500       2.42780906
Al       1.97989013      15.05732376       0.00533032
Al      -0.00175408      12.89143886       4.92069455
Al      -0.00443884      15.03359291       7.39666482
Al       1.95209860      12.90839553       7.39876553
Al       1.94954229      15.02236886       4.94435481
Al       0.00138512      12.91103439       9.85123071
Al      -0.00934961      15.07362507      12.27595913
Al       1.94744981      12.90051440      12.29314607
Al       1.93570219      15.05473485       9.86960161
Al       0.01156489      12.89552809      14.75985850
Al      -0.01737279      15.05035690      17.25577744
Al       1.92358029      12.90144575      17.24425579
Al       1.96906158      15.04460586      14.76531774
Al       3.95135363       0.04178292      -0.02536673
Al       3.90193810       2.09120275       2.46462058
Al       5.87954861      -0.00094980       2.50786749
Al       5.90939396       2.15824966       0.00735679
Al       3.94469823       0.01532180       4.96029852
Al       3.92333587       2.13654865       7.37611268
Al       5.88984294       0.02369680       7.38931546
Al       5.88011988       2.15989002       4.94277270
Al       3.91527300      -0.02642925       9.88169224
Al       3.89772217       2.15698984      12.29300541
Al       5.92483382       0.02578486      12.27912226
Al       5.86802999       2.15131759       9.82932737
Al       3.93771435      -0.00999298      14.77700282
Al       3.95631926       2.14127645      17.22476493
Al       5.86216298      -0.02748467      17.21009645
Al       5.89909409       2.13283346      14.76818313
Al       3.91105905       4.29928207       0.00382712
Al       3.91110929       6.47655287       2.46814463
Al       5.87813723       4.31252229       2.49455772
Al       5.86871741       6.43102516       0.03413234
Al       3.94265619       4.28606279       4.90775478
Al       3.93218862       6.43434697       7.40511774
Al       5.90373875       4.27365914       7.41675166
Al       5.88041276       6.43649014       4.90245484
Al       3.91719415       4.31601212       9.85599672
Al       3.92901392       6.49332457      12.30063327
Al       5.90233844       4.30663061      12.31447742
Al       5.88951620       6.43529927       9.87497592
Al       3.93064320       4.30610308      14.77197638
Al       3.89766255       6.46186977      17.22468876
Al       5.88579129       4.32161572      17.22993877
Al       5.88105125       6.42673850      14.76671936
Al       3.94166386       8.59192520      -0.02212974
Al       3.93945280      10.77441525       2.48536609
Al       5.89535755       8.57730952       2.45179855
Al       5.89571031      10.73467529      -0.01514788
Al       3.93371779       8.61181617       4.95110063
Al       3.91025742      10.79633848       7.36746386
Al       5.89085060       8.56720776       7.37795043
Al       5.90072557      10.73748495       4.92397675
Al       3.96513036       8.56885224       9.84947484
Al       3.93236638      10.77271483      12.33983658
Al       5.88300075       8.61182949      12.30511829
Al       5.89325387      10.78889735       9.79700182
Al       3.94079462       8.63330666      14.76679296
Al       3.89156080      10.73918922      17.23878153
Al       5.88248576       8.60936867      17.25187452
Al       5.88093377      10.75981710      14.77509910
Al       3.90870752      12.89371292      -0.01944417
Al       3.94152739      15.05144619       2.44627696
Al       5.89130828      12.88998469       2.42855595
Al       5.87783995      15.05343215      -0.00541614
Al       3.93995156      12.90288415       4.92444988
Al       3.93815372      15.02841518       7.38076339
Al       5.89178656      12.90488392       7.40333867
Al       5.85283665      15.03319164       4.93987747
Al       3.91090265      12.88584279       9.86777566
Al       3.94669200      15.03614755      12.31100372
Al       5.87818230      12.90154990      12.29358188
Al       5.89823633      15.06201510       9.85833728
Al       3.92933026      12.91633207      14.77659696
Al       3.90516108      15.04109086      17.21966870
Al       5.88628154      12.91432121      17.22995625
Al       5.88653825      15.04463718      14.78545507
Al       7.83068981       0.01419524       0.01000002
Al       7.81381454       2.17750619       2.45922851
Al       9.83123317       0.00647669       2.43762109
Al       9.83676331       2.13549720      -0.01495090
Al       7.85581242       0.02474128       4.89075668
Al       7.85987994       2.17482685       7.36424493
Al       9.81654551      -0.00428362       7.40502913
Al       9.82232560       2.17825123       4.90360565
Al       7.89216002      -0.02218223       9.86362157
Al       7.82832001       2.14718806      12.30173020
Al       9.81766232      -0.00983252      12.29405080
Al       9.77733745       2.13557256       9.83196744
Al       7.86481421      -0.02119134      14.78127233
Al       7.83701985       2.13451192      17.26012390
Al       9.77498112       0.01918730      17.22068745
Al       9.78292166       2.17832639      14.80101324
Al       7.85752224       4.26411414       0.01481155
Al       7.81608533       6.44939978       2.46518884
Al       9.82388650       4.30030493       2.48020769
Al       9.81784247       6.44413879      -0.02635426
Al       7.85415050       4.32367920       4.92152864
Al       7.87063700       6.47081391       7.39782433
Al       9.77112679       4.30406070       7.38075231
Al       9.81988279       6.46138904       4.88459740
Al       7.83209573       4.28375871       9.86629572
Al       7.84977323       6.43182296      12.32081839
Al       9.81868898       4.30322870      12.33276367
Al       9.79367499       6.43133893       9.86004607
Al       7.86853099       4.26484952      14.75547323
Al       7.82251367       6.43167583      17.22922039
Al       9.83776800       4.33296518      17.20131508
Al       9.85653938       6.44282882      14.75111599
Al       7.86401768       8.58009142      -0.03226271
Al       7.84038321      10.74949337       2.45107130
Al       9.81985210       8.62061071       2.45423267
Al       9.83087104      10.78319300      -0.00870421
Al       7.84617036       8.61981601       4.93753342
Al       7.86459451      10.76451871       7.39029031
Al       9.82399510       8.59129455       7.36431636
Al       9.82389684      10.74332112       4.97808412
Al       7.82865819       8.54777206       9.88304738
Al       7.83115735      10.76841160      12.32174189
Al       9.79465603       8.62528615      12.27624980
Al       9.80007347      10.75074253       9.85490550
Al       7.83117060       8.61692919      14.77764053
Al       7.87428253      10.80829596      17.22509005
Al       9.80706972       8.61861237      17.20201520
Al       9.79234028      10.79146410      14.78352910
Al       7.86929327      12.90752403       0.01121217
Al       7.83410175      15.02344235       2.49133367
Al       9.77586814      12.91417486       2.45231226
Al       9.80181501      15.05667191      -0.01038958
Al       7.85148076      12.89538240       4.94953135
Al       7.83377855      15.02510598       7.41942841
Al       9.80833078      12.88686736       7.37889680
Al       9.78634787      15.04397698       4.91080609
Al       7.87628003      12.88440029       9.86964300
Al       7.84394756      15.06930045      12.29869608
Al       9.80978940      12.89421994      12.27843585
Al       9.77543553      15.04402618       9.87022973
Al       7.87464767      12.91125986      14.76095093
Al       7.86166838      15.04226447      17.24430461
Al       9.84323364      12.92478061      17.21451744
Al       9.79118796      15.03288862      14.73540784
Al      11.78647396       0.01573641      -0.03329360
Al      11.78878057       2.12546388       2.44828534
Al      13.69195771      -0.01159414       2.47717523
Al      13.73134562       2.15400189       0.01407180
Al      11.76009458       0.00537452       4.96213741
Al      11.74575396       2.11696068       7.38537346
Al      13.76779925      -0.03293081       7.40086037
Al      13.73885330       2.14555995       4.92166013
Al      11.75851239      -0.00216672       9.85437245
Al      11.78430192       2.14260313      12.28655993
Al      13.70506148      -0.00789692      12.29626140
Al      13.74136161       2.12050212       9.82695719
Al      11.77035110      -0.01468692      14.77336856
Al      11.81044058       2.15998337      17.23454720
Al      13.72224585      -0.01743823      17.23597350
Al      13.75540344       2.18073181      14.75478274
Al      11.76763558       4.30354440       0.04423287
Al      11.79868752       6.41647262       2.47612019
Al      13.71920344       4.28929824       2.48115533
Al      13.72003372       6.42078076       0.03213164
Al      11.75817280       4.32400891       4.93262634
Al      11.75236023       6.46372445       7.38499834
Al      13.73129352       4.32057549       7.43298167
Al      13.74848200       6.46948026       4.90034847
Al      11.73642706       4.32172349       9.88510121
Al      11.79605722       6.47270979      12.31912169
Al      13.75356225       4.31299033      12.30210854
Al      13.75753023       6.44526813       9.84391328
Al      11.75269625       4.32203851      14.79959193
Al      11.77948211       6.43097106      17.24838809
Al      13.76495693       4.27914304      17.24485203
Al      13.72678126       6.47101179      14.75114386
Al      11.76928502       8.59591287       0.00713208
Al      11.76121172      10.71448486       2.43101408
Al      13.74098220       8.58697269       2.45179234
Al      13.71510028      10.75969222      -0.01467623
Al      11.77137984       8.59358397       4.91049426
Al      11.76035966      10.76036116       7.39071388
Al      13.72813740       8.60181452       7.39920915
Al      13.74805590      10.77014700       4.90774992
Al      11.77384024       8.59809420       9.82878606
Al      11.74717083      10.75146429      12.31919529
Al      13.73538828       8.62114947      12.33381617
Al      13.72994809      10.75318133       9.87353072
Al      11.80077606       8.58728362      14.76849311
Al      11.76259804      10.76549475      17.23942004
Al      13.71646856       8.58002815      17.24731674
Al      13.75240143      10.75424252      14.75035712
Al      11.77386129      12.93425726       0.00793749
Al      11.76054064      15.08993451       2.47635685
Al      13.72506656      12.89903577       2.45256275
Al      13.74785817      15.06203753       0.00763500
Al      11.78441702      12.95071806       4.91348273
Al      11.76963248      15.04333041       7.37291168
Al      13.74285540      12.89526370       7.36020606
Al      13.73511757      15.00746636       4.93724475
Al      11.74326566      12.92019713       9.85960685
Al      11.79700761      15.04184182      12.33461479
Al      13.76530377      12.91506118      12.30384825
Al      13.72226533      15.05604730       9.87903085
Al      11.77768192      12.88036411      14.77917989
Al      11.77463055      15.05002908      17.23561502
Al      13.71600625      12.87374256      17.23303099
Al      13.75749796      15.04887154      14.78519097
