542
Lattice="75.11839175723942 0.0 0.0 0.0 75.11839175723942 0.0 0.0 0.0 75.11839175723942" Properties=species:S:1:pos:R:3 id=sample_000432 pbc="T T T"
Si      23.54213209      23.55415759      23.56607102
Si      24.90384144      24.88454507      24.88958417
Si      26.26897312      26.23206257      23.55169648
Si      27.62600432      27.62552432      24.91451016
Si      28.98610658      28.96178000      23.54342563
Si      30.35151597      30.31182752      24.90328173
Si      31.69819307      31.66407340      23.54849855
Si      33.04298439      33.05414383      24.89292758
Si      34.40429895      34.40223570      23.53551855
Si      35.75159662      35.77380512      24.90405742
Si      37.11584835      37.11698338      23.54159099
Si      38.46957050      38.47701729      24.89076933
Si      39.82554972      39.83946374      23.55548852
Si      41.18408945      41.19674589      24.89431778
Si      42.53158280      42.52980039      23.54572956
Si      43.89957201      43.92389327      24.88985396
Si      45.25418262      45.25665318      23.55651501
Si      46.61374138      46.62035714      24.89456041
Si      47.97067920      47.96876217      23.56009555
Si      26.24424645      23.55682593      26.24935842
Si      27.62475730      24.92625027      27.61127052
Si      28.97031392      26.25732926      26.25708182
Si      30.33870564      27.62132502      27.60042750
Si      31.68533196      28.97993379      26.27828127
Si      33.06655763      30.33840639      27.59331627
Si      34.41152139      31.68263355      26.24074523
Si      35.75393486      33.05431431      27.61864584
Si      37.12384873      34.40202339      26.22265095
Si      38.49965354      35.77063290      27.62985047
Si      39.81150172      37.14689036      26.26795327
Si      41.20070977      38.46417499      27.63387021
Si      42.55072509      39.84758902      26.25966055
Si      43.91570980      41.18023442      27.59089191
Si      45.25512216      42.55263168      26.23440721
Si      46.63232923      43.89037465      27.61184643
Si      47.98308807      45.28517657      26.24486745
Si      49.35311639      46.63357968      27.62017131
Si      28.98757270      23.55118653      28.97835888
Si      30.33405906      24.87964382      30.34357366
Si      31.66637998      26.23830628      28.96950928
Si      33.05576398      27.63180509      30.31977271
Si      34.39808443      28.97710045      28.97796893
Si      35.80332106      30.32993924      30.33805307
Si      37.12376985      31.68793899      28.96644535
Si      38.48099732      33.05258551      30.33376609
Si      39.87027545      34.39119805      28.97020417
Si      41.18558379      35.77365076      30.34132161
Si      42.53910182      37.13153662      28.98576929
Si      43.92309704      38.46576484      30.31842416
Si      45.28252629      39.82676041      28.99836379
Si      46.63876962      41.19212946      30.34015961
Si      47.96702441      42.54773022      28.97382493
Si      49.35037363      43.89510457      30.34447348
Si      50.67357098      45.23355017      28.98039398
Si      31.69825730      23.54220606      31.70583732
Si      33.05019188      24.88886735      33.05041712
Si      34.41264791      26.24833269      31.67932077
Si      35.73072530      27.59432524      33.05038698
Si      37.10260652      28.97627327      31.69001782
Si      38.48853212      30.32083264      33.04158830
Si      39.83019218      31.67876722      31.67531325
Si      41.18195428      33.05573713      33.02482053
Si      42.57179506      34.39292767      31.66969473
Si      43.92196818      35.79531798      33.04974641
Si      45.26773394      37.15085150      31.67954528
Si      46.61916838      38.46685929      33.05271279
Si      47.96950067      39.83646111      31.69969256
Si      49.33459853      41.19908446      33.04656597
Si      50.69852261      42.52248724      31.67311718
Si      34.40291835      23.52763768      34.40308464
Si      35.75825635      24.89713429      35.74986677
Si      37.13268607      26.27508796      34.42022198
Si      38.48873526      27.64225284      35.76973223
Si      39.84044526      28.94561687      34.39096516
Si      41.21601942      30.31827249      35.76081514
Si      42.55685505      31.71568538      34.38837348
Si      43.89985447      33.04303527      35.74898521
Si      45.27081217      34.39342088      34.42991801
Si      46.61808869      35.77190884      35.77262572
Si      47.97729274      37.13751821      34.39056597
Si      49.34470250      38.47045748      35.77475503
Si      50.70857813      39.82295304      34.39888118
Si      37.13095121      23.54765348      37.12833532
Si      38.49757717      24.92262195      38.48511942
Si      39.83545188      26.25024387      37.12190295
Si      41.18153646      27.61851573      38.49237268
Si      42.54570583      28.96659935      37.13412647
Si      43.90931376      30.34990344      38.47321026
Si      45.26273834      31.68765887      37.12464974
Si      46.63457986      33.03094810      38.48375644
Si      47.98830578      34.40325070      37.11206078
Si      49.35518323      35.76541901      38.48363063
Si      50.69283074      37.12579263      37.10101496
Si      52.06540716      38.47121850      38.48304733
Si      39.86576518      23.53984903      39.84020016
Si      41.18007885      24.88823998      41.20221106
Si      42.55470670      26.26112844      39.83914856
Si      43.92757276      27.62308203      41.17440564
Si      45.26729799      28.97182836      39.83606963
Si      46.63513708      30.30809076      41.22036528
Si      47.98732837      31.70419575      39.84446209
Si      49.31906688      33.04416517      41.18217073
Si      50.68981116      34.39667220      39.81792612
Si      42.54612975      23.56594650      42.55821962
Si      43.90513881      24.90009188      43.89382308
Si      45.27477839      26.26720683      42.54630063
Si      46.62309584      27.62141503      43.91331024
Si      47.96398729      28.96198881      42.56561592
Si      49.34801765      30.30989166      43.90447192
Si      50.71173920      31.72346995      42.56991904
Si      45.27737531      23.54248835      45.29706327
Si      46.60571123      24.93791737      46.61430227
Si      47.99415759      26.27726086      45.29031619
Si      49.32742991      27.63775898      46.65592183
Si      50.68815737      28.97405360      45.26245424
Si      47.98892488      23.53537924      47.97418250
Si      23.54761439      26.26814860      26.26364218
Si      24.87934388      27.62921723      27.65158193
Si      26.25233701      28.99243580      26.27916621
Si      27.63029825      30.32335225      27.58569017
Si      28.97901204      31.69613742      26.28581490
Si      30.32665384      33.04906649      27.62601663
Si      31.68492743      34.40971018      26.25253453
Si      33.08721693      35.77072514      27.61511963
Si      34.38893747      37.12751915      26.28280530
Si      35.77628720      38.47528924      27.60792796
Si      37.11990648      39.82823810      26.26428757
Si      38.45936134      41.17784579      27.61056430
Si      39.83846395      42.54446777      26.26069821
Si      41.20342773      43.90648858      27.63752346
Si      42.54660983      45.25179036      26.24470968
Si      43.90845761      46.61914504      27.62096985
Si      45.27196975      47.99485677      26.24511773
Si      46.62702059      49.32884384      27.62606838
Si      26.26541553      26.25539397      28.97126854
Si      27.60152421      27.59774342      30.35707910
Si      28.97319934      28.96930724      28.97183300
Si      30.31626990      30.33299965      30.35435726
Si      31.68702381      31.71470163      28.96879580
Si      33.05189256      33.04158255      30.34213851
Si      34.41648459      34.38910547      28.97143497
Si      35.78242686      35.78980683      30.33834321
Si      37.10712837      37.11766380      28.96409796
Si      38.47102790      38.49285633      30.34532934
Si      39.84835121      39.84006135      28.97603187
Si      41.20213598      41.18092444      30.34043915
Si      42.52047218      42.55634718      28.98405362
Si      43.91603708      43.89235090      30.32153181
Si      45.25798298      45.27165495      28.96884621
Si      46.63630399      46.61982236      30.31945754
Si      47.99217729      47.98874031      28.98722070
Si      28.97011615      26.25041791      31.69520829
Si      30.32086111      27.62274156      33.04821233
Si      31.69800840      28.96052911      31.69044717
Si      33.04137877      30.34369465      33.05490439
Si      34.41123819      31.69942119      31.68500457
Si      35.72885530      33.05411827      33.02839471
Si      37.12432510      34.39408643      31.68992658
Si      38.48308242      35.76326757      33.05308442
Si      39.84924856      37.11682759      31.67786874
Si      41.21820881      38.49497736      33.05142748
Si      42.55021826      39.86085159      31.69793140
Si      43.89579298      41.20645578      33.05002533
Si      45.24202115      42.53255355      31.69558160
Si      46.63810502      43.92562857      33.06108034
Si      47.97488587      45.26715141      31.68981427
Si      31.70404853      26.24910428      34.38604155
Si      33.02938071      27.63327104      35.74956267
Si      34.40430598      28.96927035      34.40477654
Si      35.76084757      30.32918452      35.74102036
Si      37.11212047      31.68598156      34.39682363
Si      38.52711855      33.04482203      35.78839888
Si      39.81501846      34.39384992      34.40877763
Si      41.19961890      35.78359731      35.77605156
Si      42.55401566      37.10768623      34.39915451
Si      43.91698394      38.47940609      35.75030051
Si      45.22802272      39.81311653      34.40883183
Si      46.62418426      41.17115196      35.78325466
Si      47.96287481      42.52559964      34.40571293
Si      49.34697496      43.90574582      35.75802706
Si      34.41013322      26.25586062      37.13074949
Si      35.76608825      27.62774891      38.48978626
Si      37.10817923      28.96174197      37.13452529
Si      38.46796758      30.33574495      38.48083466
Si      39.85651259      31.68346828      37.11364953
Si      41.19337566      33.03182363      38.48125426
Si      42.53356434      34.42268537      37.13177186
Si      43.90441472      35.74121637      38.48296674
Si      45.23638664      37.10487450      37.11470617
Si      46.60907302      38.48016080      38.49582834
Si      47.97636241      39.84542389      37.11000640
Si      49.33567827      41.18751718      38.48474507
Si      37.12714123      26.27691383      39.80306220
Si      38.48289941      27.62236833      41.19461286
Si      39.84095084      28.98930324      39.84584020
Si      41.21065123      30.33094135      41.21703026
Si      42.55122699      31.71346858      39.85272555
Si      43.90219658      33.06271187      41.18654133
Si      45.25987952      34.40715278      39.84035949
Si      46.60553128      35.75303822      41.19129804
Si      47.96477412      37.10658051      39.84513273
Si      49.33034226      38.48943275      41.19262448
Si      39.82513608      26.27189884      42.53230746
Si      41.19096723      27.62998965      43.92074528
Si      42.53147156      28.98827710      42.54679792
Si      43.91290746      30.33676608      43.87790793
Si      45.28299939      31.69531185      42.55320667
Si      46.60963244      33.05551877      43.88861802
Si      48.00246387      34.41217501      42.52884826
Si      49.33264759      35.78478818      43.92042364
Si      42.55077665      26.26172847      45.29464446
Si      43.90315078      27.59713221      46.63532791
Si      45.24541677      28.96419223      45.26337768
Si      46.62176069      30.34336483      46.64697433
Si      48.00220296      31.70143652      45.29285390
Si      45.26011058      26.28052685      47.96938080
Si      46.64609792      27.63555985      49.35181591
Si      47.98703365      28.94281035      47.96792987
Si      23.55521029      29.01092703      28.98103877
Si      24.90283442      30.31396166      30.34613193
Si      26.23963750      31.69481990      28.97271188
Si      27.63283602      33.06556733      30.33054141
Si      28.96787906      34.37642664      28.99050553
Si      30.32999812      35.77301841      30.32714711
Si      31.70919435      37.10457407      28.96782648
Si      33.03532352      38.48946442      30.32418361
Si      34.38132133      39.81618437      28.98017671
Si      35.77919372      41.19758076      30.31354972
Si      37.12096267      42.54648686      28.96549518
Si      38.49358925      43.90335009      30.33888537
Si      39.82789469      45.24354294      28.96972698
Si      41.18401756      46.63032084      30.34842668
Si      42.54770048      47.98183600      28.99559491
Si      43.89901482      49.34926290      30.32790660
Si      45.24695731      50.69146413      28.97238947
Si      26.25003142      28.98484562      31.70406428
Si      27.63583164      30.34818650      33.06670363
Si      28.96063231      31.69897556      31.68338232
Si      30.31442635      33.06676911      33.04260132
Si      31.67803320      34.39000159      31.70270459
Si      33.03760860      35.76399154      33.06042888
Si      34.41927367      37.13064309      31.68913624
Si      35.77443282      38.50364286      33.06232600
Si      37.12460579      39.82686026      31.69754484
Si      38.45953745      41.18859440      33.05277063
Si      39.82509887      42.56334111      31.69901635
Si      41.18192140      43.89529332      33.06346894
Si      42.55695825      45.25126821      31.70378315
Si      43.91792272      46.64897397      33.04225273
Si      45.28373285      47.96680746      31.66950542
Si      28.96754525      28.97277616      34.41268581
Si      30.31368803      30.34858910      35.78351313
Si      31.69593396      31.67182481      34.41666336
Si      33.07022289      33.05420414      35.73874019
Si      34.40159842      34.43369004      34.39072217
Si      35.76726181      35.75851395      35.75881539
Si      37.12840318      37.14682909      34.42163160
Si      38.48044000      38.48106452      35.74927918
Si      39.86127123      39.83700005      34.41411696
Si      41.19053895      41.19992638      35.76047893
Si      42.53833013      42.55183620      34.40349941
Si      43.90004889      43.90598773      35.75135974
Si      45.27406251      45.27081548      34.40401312
Si      46.64302171      46.62160173      35.77031651
Si      31.67793267      28.95493702      37.11098071
Si      33.03571222      30.32749078      38.50355841
Si      34.41340541      31.69745739      37.12601696
Si      35.76418306      33.04765944      38.48446014
Si      37.12681849      34.42063044      37.10729567
Si      38.45569388      35.77674054      38.49003598
Si      39.85367983      37.10578859      37.11899530
Si      41.18342030      38.46784534      38.48155706
Si      42.53655279      39.82860440      37.12294807
Si      43.91288723      41.18435893      38.47486588
Si      45.28638663      42.54831462      37.10219996
Si      46.62918039      43.90586350      38.48102937
Si      47.96559049      45.25553763      37.12886421
Si      34.39346792      28.96509757      39.83189601
Si      35.74350134      30.34906362      41.19268948
Si      37.11256499      31.69239703      39.82813068
Si      38.49231663      33.05404148      41.21349660
Si      39.84956972      34.39320487      39.85225700
Si      41.20227334      35.75813700      41.19207039
Si      42.54881485      37.09358245      39.85413175
Si      43.88648769      38.50218826      41.20092265
Si      45.26631129      39.83211849      39.82738719
Si      46.60309554      41.20704867      41.21291589
Si      47.99415243      42.57831934      39.84223795
Si      37.11978643      28.97657538      42.56085551
Si      38.49697845      30.30437311      43.91352414
Si      39.80684058      31.71030338      42.56370987
Si      41.20438826      33.04718892      43.91741238
Si      42.58091412      34.41541419      42.54072754
Si      43.91491082      35.78834453      43.91698911
Si      45.28902291      37.12843949      42.54864118
Si      46.62830917      38.49536300      43.88596904
Si      47.96960056      39.83001094      42.54447473
Si      39.84194741      28.98317592      45.25724964
Si      41.18427096      30.33547147      46.60397078
Si      42.54301118      31.71104586      45.28167304
Si      43.89349351      33.05931298      46.59403528
Si      45.25562827      34.41279342      45.25556446
Si      46.59873151      35.74942220      46.62561460
Si      47.99512374      37.10457656      45.26672638
Si      42.55152360      28.98860260      47.95895931
Si      43.91896717      30.33072067      49.31730943
Si      45.24950313      31.69001361      47.99474421
Si      45.26315341      28.96395877      50.71493789
Si      23.56418022      31.70605018      31.69952463
Si      24.89809822      33.04560976      33.05284925
Si      26.24475212      34.39003157      31.68482704
Si      27.61232827      35.76843568      33.03342217
Si      28.98738039      37.10650080      31.67712848
Si      30.32888139      38.47283318      33.07727759
Si      31.68448827      39.83975861      31.71665476
Si      33.06809760      41.18649736      33.05499985
Si      34.40085929      42.52681924      31.67067687
Si      35.78247675      43.90610204      33.05735442
Si      37.12460884      45.25143726      31.70682268
Si      38.45172197      46.61814453      33.04473752
Si      39.83365929      47.97059884      31.70107961
Si      41.18073174      49.33262259      33.04536487
Si      42.56028586      50.71025193      31.69546406
Si      26.25786601      31.68185831      34.40394170
Si      27.62756233      33.04817931      35.75618726
Si      28.97480091      34.40655379      34.40181999
Si      30.32414568      35.75416753      35.77845378
Si      31.68725074      37.12448072      34.41133529
Si      33.04288764      38.47158909      35.74387482
Si      34.38299077      39.81808813      34.41342707
Si      35.73970641      41.19800818      35.75114972
Si      37.12531244      42.55176315      34.42438230
Si      38.50341392      43.92392980      35.74418322
Si      39.82125035      45.26063412      34.39240648
Si      41.18540573      46.64128229      35.73257310
Si      42.55932506      47.99164325      34.41433620
Si      43.93491168      49.35002223      35.78002740
Si      28.98917344      31.67613036      37.12564710
Si      30.32870315      33.05870532      38.47352264
Si      31.68911953      34.41227706      37.11555333
Si      33.03485551      35.78155427      38.49154742
Si      34.39825200      37.12181154      37.11783977
Si      35.74784216      38.46604931      38.47106094
Si      37.11148596      39.83591726      37.10628526
Si      38.47641860      41.22000151      38.49018127
Si      39.83337939      42.54428152      37.11786535
Si      41.21169021      43.91221662      38.47794475
Si      42.56198758      45.27721480      37.12341678
Si      43.90134183      46.61616915      38.46360638
Si      45.26327134      48.00784923      37.10118736
Si      31.69417830      31.68617134      39.85688204
Si      33.06002806      33.04118907      41.17912860
Si      34.40212257      34.41367198      39.83432849
Si      35.76102210      35.78401789      41.21532101
Si      37.08614041      37.12242502      39.82791299
Si      38.46999717      38.48845533      41.21043231
Si      39.85582276      39.85798042      39.84327915
Si      41.19847096      41.20801119      41.19467343
Si      42.55582338      42.55089120      39.81512661
Si      43.88984923      43.91910563      41.17489179
Si      45.26677785      45.28835857      39.82825661
Si      34.39088000      31.70047963      42.54767108
Si      35.74772575      33.04710885      43.91062328
Si      37.12259254      34.40863827      42.55720963
Si      38.46671369      35.75712720      43.88410215
Si      39.82452251      37.12011830      42.55128349
Si      41.18342375      38.47750574      43.89118402
Si      42.54415788      39.82188882      42.56989766
Si      43.92432982      41.20887295      43.92233366
Si      45.27134110      42.54981790      42.57358018
Si      37.12839333      31.68367797      45.25275398
Si      38.46946191      33.04206205      46.63382817
Si      39.85143029      34.43273086      45.25923821
Si      41.18347435      35.75287435      46.63345325
Si      42.52343725      37.12035456      45.26310270
Si      43.89851999      38.47820946      46.62093146
Si      45.26810222      39.83743543      45.26414681
Si      39.87020135      31.65855468      47.97835791
Si      41.16460582      33.06989153      49.31794021
Si      42.57418665      34.39821342      47.97414438
Si      43.91089850      35.76598159      49.34442961
Si      45.27806757      37.13232409      47.97434299
Si      42.56034426      31.71732692      50.69392132
Si      23.55963830      34.39658969      34.37075200
Si      24.88309787      35.74649910      35.76385945
Si      26.24543931      37.12143458      34.44593446
Si      27.62603241      38.49415014      35.76111734
Si      28.98347404      39.81627203      34.42787523
Si      30.32546651      41.21895165      35.76437918
Si      31.69308368      42.54595567      34.38454621
Si      33.06464775      43.92961673      35.73837135
Si      34.38542605      45.27544210      34.40505192
Si      35.76100236      46.62314542      35.78266530
Si      37.14281107      47.98980258      34.40428459
Si      38.47585766      49.35041016      35.77561309
Si      39.85780047      50.71489238      34.40132233
Si      26.24785734      34.40743683      37.14266267
Si      27.61104417      35.78618332      38.46757004
Si      28.96981685      37.12460411      37.12347897
Si      30.30521018      38.50447688      38.47534684
Si      31.70159256      39.84417448      37.13070354
Si      33.06174539      41.17013366      38.46697096
Si      34.41683002      42.54636705      37.11511607
Si      35.75221739      43.89884426      38.48315359
Si      37.10767714      45.27803332      37.13787301
Si      38.49762879      46.62680855      38.48631400
Si      39.83534312      47.98756436      37.11806243
Si      41.17913721      49.33518389      38.52683164
Si      28.96574588      34.42464467      39.83692192
Si      30.33819257      35.76031707      41.17345030
Si      31.68810421      37.12306468      39.84131219
Si      33.04089354      38.47028183      41.18168734
Si      34.39721277      39.80493692      39.83910485
Si      35.74853019      41.21662776      41.20366539
Si      37.10969110      42.56012729      39.85009713
Si      38.49174620      43.90999724      41.15692982
Si      39.86657427      45.28671340      39.82145138
Si      41.16656444      46.60783863      41.20762100
Si      42.52059970      47.97494391      39.83358646
Si      31.69220085      34.39844735      42.54965686
Si      33.06637156      35.76926997      43.90363154
Si      34.39954993      37.11527211      42.56311804
Si      35.75760897      38.46842585      43.90170021
Si      37.11573611      39.83570627      42.55292334
Si      38.47412616      41.20994561      43.89394014
Si      39.82009572      42.53659438      42.58376652
Si      41.16462310      43.90551454      43.90948960
Si      42.55217890      45.28119410      42.54062676
Si      34.36681359      34.41810758      45.27450452
Si      35.77093585      35.76673459      46.63791850
Si      37.10444186      37.13305211      45.25940902
Si      38.50253588      38.46577592      46.61532009
Si      39.82337005      39.82058523      45.28079266
Si      41.23506615      41.19077489      46.61530265
Si      42.53705845      42.55580257      45.26538647
Si      37.10923895      34.37961245      47.96521519
Si      38.47236482      35.77310044      49.33707507
Si      39.83724103      37.14022489      47.97647192
Si      41.18412221      38.47694799      49.33964905
Si      42.55907726      39.83812358      47.97616219
Si      39.84635025      34.40519816      50.68879920
Si      23.54953144      37.10905696      37.12498998
Si      24.90128361      38.46839731      38.46547330
Si      26.25489177      39.82208109      37.13250726
Si      27.61598146      41.20196500      38.50233846
Si      28.96854456      42.54893168      37.15267617
Si      30.35444980      43.89053252      38.45909223
Si      31.68327294      45.28756748      37.13043449
Si      33.04465836      46.63338592      38.47459641
Si      34.40628334      47.97273791      37.13130517
Si      35.75327598      49.34982019      38.47371082
Si      37.11155668      50.70696189      37.09714698
Si      38.47314198      52.03679083      38.49582003
Si      26.28217163      37.12254200      39.84588406
Si      27.63053436      38.45499792      41.18025341
Si      28.97648118      39.83829150      39.83732735
Si      30.34513001      41.18251415      41.17779307
Si      31.68486275      42.53521657      39.83144092
Si      33.07121410      43.92384443      41.20845331
Si      34.40565953      45.26963129      39.86131868
Si      35.79214937      46.61514931      41.21198300
Si      37.09280293      47.98253230      39.83717149
Si      38.48573930      49.34309464      41.20508694
Si      28.96322667      37.11196037      42.55611500
Si      30.35641448      38.47436437      43.91500683
Si      31.67566349      39.87833222      42.54100429
Si      33.04970869      41.19404559      43.89923546
Si      34.38192529      42.53835584      42.53903427
Si      35.74947171      43.87777173      43.93218381
Si      37.11312877      45.26306850      42.55703970
Si      38.50450675      46.62455375      43.93154691
Si      39.85326716      47.99010096      42.57450965
Si      31.67080511      37.12128430      45.28108996
Si      33.04756461      38.47661599      46.61161717
Si      34.39429899      39.83239089      45.23450691
Si      35.76863696      41.19263149      46.63119147
Si      37.12902262      42.55131132      45.27401216
Si      38.46825859      43.91426429      46.60848675
Si      39.84051453      45.27681227      45.27863134
Si      34.40745485      37.13243664      47.96746475
Si      35.76683860      38.44514182      49.31693814
Si      37.14538323      39.84384235      47.96700443
Si      38.47474390      41.20176442      49.33009273
Si      39.83673893      42.57254988      47.96750141
Si      37.10573311      37.13863366      50.68319460
Si      38.45984910      38.47408515      52.08310892
Si      23.54679205      39.83601305      39.83590163
Si      24.91122814      41.17684125      41.20444581
Si      26.26275413      42.55347407      39.83669573
Si      27.60988576      43.90138198      41.21214442
Si      28.98998700      45.25367691      39.82761617
Si      30.32093123      46.62570558      41.22535151
Si      31.69295689      48.00805086      39.82025492
Si      33.04368845      49.36736117      41.21122928
Si      34.41702983      50.69866736      39.82170500
Si      26.23760786      39.84086421      42.56316446
Si      27.63387236      41.21252813      43.90855987
Si      28.98245287      42.56016492      42.53472435
Si      30.31016928      43.91504015      43.92640655
Si      31.68920702      45.26801366      42.54758706
Si      33.02649668      46.62538399      43.90324150
Si      34.40461729      47.98500211      42.52273028
Si      35.73793556      49.35336514      43.93210306
Si      28.97102028      39.83248719      45.26596420
Si      30.31463982      41.19743586      46.63128180
Si      31.70392035      42.53114578      45.27578650
Si      33.06005366      43.91645447      46.60166738
Si      34.41150968      45.27345388      45.27744862
Si      35.76965456      46.62723820      46.62533500
Si      37.09676168      47.98407800      45.27242665
Si      31.70159853      39.84467338      47.97285333
Si      33.06188290      41.20644557      49.34138451
Si      34.39535201      42.54689424      47.98458341
Si      35.75850363      43.87866301      49.34358949
Si      37.12652916      45.26852088      47.98793762
Si      34.40077568      39.82649310      50.68192558
Si      23.54021170      42.55684470      42.56301610
Si      24.90066749      43.91308107      43.90462225
Si      26.24618825      45.28232865      42.54669145
Si      27.61222476      46.62281470      43.89307697
Si      28.97859297      47.97914896      42.54868784
Si      30.33527554      49.35543618      43.91628378
Si      31.70630674      50.68728324      42.57964096
Si      26.25409854      42.54418866      45.26550507
Si      27.62040532      43.88733013      46.60630265
Si      28.98450183      45.27737142      45.26519742
Si      30.33316502      46.60481746      46.62964870
Si      31.69165434      47.96221670      45.25856118
Si      28.97549132      42.55740916      47.98047452
Si      30.32782234      43.88785137      49.33927022
Si      31.67412057      45.27454146      48.01308929
Si      31.68256464      42.52970549      50.69303256
Si      23.52734148      45.26038539      45.28469789
Si      24.90530035      46.61575462      46.62444483
Si      26.25752255      47.98724376      45.26913648
Si      27.60746960      49.29784616      46.63288792
Si      28.93609375      50.68833134      45.27973118
Si      26.24580688      45.27672831      47.99004795
Si      27.61666070      46.61833389      49.33443240
Si      28.97136552      48.00852995      47.97602675
Si      28.97237515      45.28969464      50.69937192
Si      23.52687193      47.99672234      47.97623532
