256
Lattice="14.33264392708526 0.0 0.0 0.0 13.861737708298541 0.0 0.0 0.0 14.017325458471435" Properties=species:S:1:pos:R:3 id=sample_001747 pbc="F F F"
Fe      -0.00935358      -0.01470504      -0.00960176
Fe       0.01845179       1.73373119       1.73987060
Fe       1.79442705       0.00425713       1.74401309
Fe       1.79330798       1.75053114      -0.00726735
Fe      -0.01332957      -0.01132794       3.50561290
Fe      -0.00500285       1.73329915       5.25320439
Fe       1.78618244      -0.00848277       5.25971459
Fe       1.78548497       1.74032331       3.49725369
Fe      -0.00296228      -0.00586448       7.00185898
Fe      -0.00096369       1.72292605       8.76514115
Fe       1.79397368      -0.00630723       8.75527756
Fe       1.78257413       1.75000163       7.00605528
Fe      -0.01144212      -0.00247334      10.49961791
Fe       0.01743761       1.73284316      12.25165053
Fe       1.77440247       0.01165667      12.26408279
Fe       1.78490153       1.73525693      10.51768356
Fe       0.00538445       3.46620810       0.00717699
Fe       0.01162530       5.17800539       1.72872755
Fe       1.78149245       3.46828732       1.74400965
Fe       1.79995130       5.20881588      -0.00772081
Fe       0.01040403       3.45498397       3.51601869
Fe      -0.01092303       5.19814945       5.24886181
Fe       1.78853346       3.46958920       5.25237280
Fe       1.79333022       5.19115599       3.51652153
Fe      -0.01199579       3.45471498       7.00117982
Fe      -0.00122125       5.21619954       8.75723973
Fe       1.79069850       3.45095804       8.77506827
Fe       1.81168723       5.20157761       7.02059163
Fe       0.00852796       3.46832179      10.52360566
Fe      -0.01750512       5.19497748      12.26352561
Fe       1.79374391       3.47141411      12.27611271
Fe       1.79471092       5.20474625      10.52599732
Fe      -0.00138845       6.93870009       0.00543844
Fe      -0.01552819       8.66181903       1.74712125
Fe       1.79110449       6.90988377       1.75508244
Fe       1.78412984       8.64859935       0.00030000
Fe       0.00080472       6.93172467       3.49650046
Fe       0.00512789       8.66985892       5.26789382
Fe       1.80035725       6.93202568       5.26865621
Fe       1.80490453       8.66470802       3.52482404
Fe      -0.00003167       6.91352772       7.01527749
Fe      -0.02012217       8.66540902       8.75811071
Fe       1.79376315       6.92095101       8.75691903
Fe       1.79330664       8.67828708       7.01588758
Fe      -0.01099245       6.92586873      10.52041152
Fe       0.00485842       8.67438859      12.27965931
Fe       1.77455273       6.93392850      12.27179096
Fe       1.77798251       8.65970982      10.50424421
Fe      -0.00760313      10.39337818      -0.00597403
Fe       0.00591437      12.12548159       1.75711693
Fe       1.79183184      10.40576649       1.75515758
Fe       1.76614987      12.14412738       0.00861512
Fe      -0.00178810      10.39705002       3.51054344
Fe      -0.02176277      12.13761650       5.24830814
Fe       1.78369460      10.39060665       5.26317795
Fe       1.79149678      12.13714112       3.49653084
Fe      -0.00743437      10.40449239       7.00041932
Fe       0.00264732      12.12762447       8.75693973
Fe       1.78912373      10.40103591       8.74703628
Fe       1.78964622      12.12351958       7.00944733
Fe       0.01749328      10.39961031      10.50062419
Fe      -0.01919706      12.11785684      12.25321971
Fe       1.78591828      10.37961699      12.27732784
Fe       1.79056257      12.12799668      10.51136637
Fe       3.57272379      -0.01448839       0.00355839
Fe       3.57898977       1.74116528       1.74269672
Fe       5.36357996      -0.00817622       1.74780031
Fe       5.38511702       1.70967853      -0.01377344
Fe       3.56822618      -0.00544188       3.49857818
Fe       3.57846728       1.72886049       5.24843533
Fe       5.36284961      -0.00588688       5.25038862
Fe       5.37411402       1.73156228       3.50862292
Fe       3.57231580      -0.01380092       6.99644715
Fe       3.58583696       1.73722802       8.74518516
Fe       5.37927266       0.00160418       8.77196463
Fe       5.35747107       1.73496377       7.02473637
Fe       3.58652930      -0.00426334      10.52095141
Fe       3.58298431       1.73277846      12.25517186
Fe       5.37623023       0.00448913      12.25847457
Fe       5.38109798       1.74330530      10.50327599
Fe       3.56571529       3.45856356       0.00248297
Fe       3.58576097       5.19506974       1.76550247
Fe       5.36267104       3.46128226       1.74387630
Fe       5.37189332       5.19316237       0.00020333
Fe       3.57070695       3.46563118       3.51928962
Fe       3.57116474       5.18395849       5.25544393
Fe       5.37065568       3.46621771       5.26307932
Fe       5.36858802       5.18608356       3.49576824
Fe       3.58535231       3.45258941       7.01116416
Fe       3.60408146       5.20436141       8.76395559
Fe       5.36386380       3.46326131       8.74844379
Fe       5.37904338       5.18588977       7.00234029
Fe       3.56934955       3.46488760      10.48785804
Fe       3.56774972       5.21158252      12.25383828
Fe       5.38710765       3.46428638      12.27603465
Fe       5.36839736       5.18908547      10.51940708
Fe       3.58971927       6.93211952       0.01014263
Fe       3.58736189       8.64904259       1.74477345
Fe       5.38171394       6.93415937       1.75883494
Fe       5.38615133       8.66147769      -0.00223497
Fe       3.56563090       6.93076120       3.51339843
Fe       3.57818611       8.67107848       5.26545928
Fe       5.38877958       6.92754625       5.26191789
Fe       5.37478691       8.66532859       3.51674328
Fe       3.59169714       6.93567137       6.99345173
Fe       3.56956320       8.66842445       8.76446956
Fe       5.36016628       6.93209324       8.76416632
Fe       5.38650052       8.66220922       7.02432607
Fe       3.56957998       6.91546330      10.52198753
Fe       3.59552839       8.65876098      12.27395900
Fe       5.38363857       6.92299222      12.25723240
Fe       5.38480653       8.67876981      10.51267129
Fe       3.57287532      10.39654774       0.00599853
Fe       3.56976654      12.12231053       1.74355258
Fe       5.36851903      10.37667646       1.74594258
Fe       5.37031402      12.12844116       0.00081866
Fe       3.58696795      10.39280701       3.50072179
Fe       3.58751435      12.13250637       5.26326232
Fe       5.37079395      10.39100748       5.26126382
Fe       5.37238482      12.14915518       3.51154090
Fe       3.56711849      10.39307859       7.01842452
Fe       3.57231437      12.12004484       8.77184989
Fe       5.36072174      10.38787532       8.75922647
Fe       5.38607850      12.14144472       7.01518192
Fe       3.59295765      10.39902964      10.51632006
Fe       3.56723134      12.11534632      12.26912965
Fe       5.36917775      10.40024989      12.25698419
Fe       5.36387270      12.12530559      10.52107090
Fe       7.15791719       0.01805958       0.00789517
Fe       7.16317747       1.75321885       1.76356253
Fe       8.95161997      -0.00329610       1.75302341
Fe       8.96745428       1.72735585      -0.01196543
Fe       7.17878057       0.00295458       3.49664571
Fe       7.18265430       1.73113659       5.24640083
Fe       8.94538586      -0.00450288       5.26962817
Fe       8.97409947       1.73838188       3.51466698
Fe       7.15552142       0.01261203       7.00751599
Fe       7.18230862       1.73516997       8.73533048
Fe       8.97204980       0.00218123       8.76287751
Fe       8.93735654       1.75593459       7.01993361
Fe       7.16148205      -0.00618554      10.51696220
Fe       7.17502308       1.71696997      12.27310063
Fe       8.96066257      -0.01108795      12.27293491
Fe       8.95766887       1.74331171      10.51944329
Fe       7.17754872       3.46482269      -0.00282730
Fe       7.16405596       5.21261658       1.76668911
Fe       8.96659326       3.45592087       1.76308525
Fe       8.94791317       5.21220150       0.00464078
Fe       7.17311499       3.47402756       3.50375448
Fe       7.15180665       5.19806245       5.26680952
Fe       8.96445728       3.46095944       5.26313437
Fe       8.93794185       5.21023414       3.48834072
Fe       7.16764810       3.43780935       7.01406855
Fe       7.16722857       5.19119865       8.74951102
Fe       8.96777470       3.46909648       8.76408657
Fe       8.95749765       5.20239175       7.01473428
Fe       7.17759918       3.47169648      10.51736488
Fe       7.16310527       5.20733943      12.26386049
Fe       8.95602235       3.46452643      12.26932829
Fe       8.95259287       5.19034556      10.51284797
Fe       7.17400426       6.93493099      -0.00610637
Fe       7.17772862       8.65392684       1.75492743
Fe       8.96118716       6.91398415       1.73980797
Fe       8.95741833       8.67392757       0.00347370
Fe       7.16582027       6.94854039       3.49827352
Fe       7.16664759       8.65089102       5.24023268
Fe       8.95066833       6.91675662       5.27431821
Fe       8.96980248       8.65675473       3.51475178
Fe       7.16214417       6.94057510       7.00363161
Fe       7.17889194       8.66527390       8.74675995
Fe       8.94460448       6.92429000       8.75035369
Fe       8.96411723       8.66585334       7.00645528
Fe       7.16680844       6.93118524      10.49979841
Fe       7.15790492       8.67348485      12.27938655
Fe       8.97027032       6.93572283      12.26554829
Fe       8.95524992       8.66414220      10.50536613
Fe       7.17515959      10.40754279      -0.01525080
Fe       7.15627538      12.12641541       1.76225425
Fe       8.95867561      10.38901355       1.75318454
Fe       8.97266875      12.12313125       0.00338096
Fe       7.15671170      10.41031142       3.51514467
Fe       7.15159659      12.13336506       5.26643659
Fe       8.94729880      10.39038128       5.24593820
Fe       8.95025858      12.11366238       3.49904927
Fe       7.16089074      10.38974450       7.01386038
Fe       7.15645070      12.13418609       8.75550491
Fe       8.97478577      10.40237470       8.75188273
Fe       8.93801156      12.12556455       7.00232020
Fe       7.15099295      10.40292744      10.52987372
Fe       7.17008681      12.13955668      12.26866522
Fe       8.95060238      10.40309436      12.26205127
Fe       8.95464109      12.11824169      10.52688044
Fe      10.73927104      -0.00199093      -0.00203693
Fe      10.73801582       1.72402321       1.74644872
Fe      12.54094476      -0.00267629       1.75282171
Fe      12.54517702       1.72366861      -0.00293230
Fe      10.74696869       0.02036221       3.49513836
Fe      10.75090946       1.73857328       5.26394935
Fe      12.54041085      -0.00505734       5.25097221
Fe      12.53644132       1.71883444       3.51641837
Fe      10.74134152       0.00383608       7.03000420
Fe      10.75842858       1.74438254       8.75383961
Fe      12.52301891      -0.01140385       8.76612032
Fe      12.54377107       1.74386296       7.00488336
Fe      10.75674650      -0.00809571      10.49144241
Fe      10.74729610       1.72335514      12.28144764
Fe      12.53027593      -0.00837613      12.25164792
Fe      12.55102589       1.73276782      10.50290787
Fe      10.74969572       3.46149879       0.00013665
Fe      10.75041977       5.20552583       1.74700164
Fe      12.53489156       3.47144327       1.75383002
Fe      12.54003875       5.21092722      -0.00027462
Fe      10.75839094       3.46801165       3.50572053
Fe      10.74613626       5.19744432       5.26356964
Fe      12.54417855       3.44920107       5.25201572
Fe      12.55343293       5.20631810       3.47855832
Fe      10.74939132       3.46582097       7.00877776
Fe      10.75266830       5.17815261       8.74938776
Fe      12.54898435       3.47078531       8.76689957
Fe      12.53816041       5.20787285       6.99618690
Fe      10.76246828       3.47822068      10.50638884
Fe      10.74201259       5.19352308      12.25610763
Fe      12.54708602       3.48719905      12.26572111
Fe      12.54837243       5.19356767      10.49751053
Fe      10.75150354       6.94940824      -0.00642395
Fe      10.74628198       8.67895962       1.75020748
Fe      12.52965357       6.92449380       1.75888164
Fe      12.52858674       8.67334409       0.00893574
Fe      10.75616503       6.94958997       3.52395132
Fe      10.75728465       8.66911261       5.23777255
Fe      12.55960266       6.93422253       5.25618575
Fe      12.54422572       8.67693486       3.50795102
Fe      10.72252428       6.91214220       7.00426674
Fe      10.73094828       8.66111517       8.75001153
Fe      12.53877444       6.93652669       8.76246660
Fe      12.53950081       8.66534772       7.00700392
Fe      10.77104175       6.93282413      10.52271141
Fe      10.74654873       8.67412874      12.25045124
Fe      12.55917099       6.92555880      12.28036089
Fe      12.56053767       8.66273976      10.50016708
Fe      10.75111451      10.40453512      -0.01189543
Fe      10.74831731      12.13394639       1.75587468
Fe      12.54775654      10.38516165       1.73594828
Fe      12.54677185      12.12055039      -0.01157726
Fe      10.74213459      10.37651850       3.51153273
Fe      10.75812684      12.12823379       5.25310964
Fe      12.52435993      10.38514826       5.27486362
Fe      12.55419506      12.12313910       3.52333513
Fe      10.74494398      10.39876450       7.00076443
Fe      10.75287112      12.13950664       8.76554520
Fe      12.55063181      10.40340656       8.74117402
Fe      12.54506873      12.12286056       7.00559788
Fe      10.74916481      10.39419377      10.50651281
Fe      10.75580270      12.14408258      12.27374324
Fe      12.52464749      10.39234053      12.25985805
Fe      12.52919090      12.13197428      10.50966379
