500
Lattice="19.781056376813467 0.0 0.0 0.0 21.626499467054366 0.0 0.0 0.0 18.919159646798775" Properties=species:S:1:pos:R:3 id=sample_001835 pbc="F F F"
Al      -0.00450353       0.00417064       0.01260225
Al       0.00196800       2.15391546       1.88598460
Al       1.98884219      -0.01224838       1.89498776
Al       1.98469714       2.15543785       0.00834097
Al      -0.00631920      -0.00816939       3.76479324
Al       0.00713551       2.16608364       5.68280690
Al       1.97128876      -0.00736572       5.65045413
Al       1.95879668       2.15321346       3.77976647
Al       0.01032923      -0.00655159       7.57275726
Al      -0.01784156       2.14199453       9.45904694
Al       1.96861440       0.00999407       9.44193618
Al       1.97977120       2.15324342       7.55730801
Al       0.00650354      -0.00133854      11.33477365
Al       0.00318276       2.16626703      13.23326856
Al       1.97936579      -0.01231385      13.24730566
Al       1.96450165       2.13951722      11.35569173
Al      -0.00436674      -0.01679683      15.12515574
Al      -0.01596818       2.16742481      17.03571517
Al       1.97016887      -0.00208614      17.02519739
Al       1.97841857       2.15858871      15.12444873
Al      -0.00795606       4.34095011       0.01922337
Al       0.00813760       6.48014795       1.88645572
Al       1.98495368       4.31753578       1.89598954
Al       1.97948716       6.48693993      -0.01222742
Al      -0.01701748       4.32909751       3.78851550
Al       0.00679329       6.50632961       5.65638023
Al       1.98990418       4.33169028       5.69247466
Al       2.00360769       6.49385039       3.78859023
Al      -0.00084920       4.33721593       7.57192526
Al      -0.00510103       6.48114657       9.44278611
Al       1.98380474       4.32485543       9.47038932
Al       1.97957212       6.47041403       7.56029195
Al       0.00314139       4.32771341      11.35530417
Al       0.01411044       6.49606728      13.24658125
Al       1.97497157       4.32543976      13.22994315
Al       1.98441163       6.49338277      11.34478469
Al      -0.01667734       4.35066992      15.15677905
Al       0.00252694       6.47990154      17.02579977
Al       1.98172783       4.33252140      17.04652643
Al       1.95745737       6.46543218      15.12463493
Al       0.01056171       8.65395789       0.00993728
Al       0.01455892      10.80005466       1.89727124
Al       1.97003495       8.66289257       1.89598207
Al       1.98268736      10.81171669      -0.01756847
Al       0.00537165       8.64401129       3.78798363
Al       0.00413245      10.80595032       5.68722609
Al       1.98069087       8.65195066       5.67710199
Al       1.98631965      10.80245643       3.79396145
Al      -0.01385756       8.64070544       7.56654091
Al       0.01308936      10.82116392       9.45348461
Al       1.98689996       8.65541042       9.44741208
Al       1.96445437      10.83686252       7.55611868
Al      -0.01599661       8.64870460      11.35223856
Al      -0.00757323      10.82448738      13.25327352
Al       2.00012623       8.65832271      13.24689058
Al       1.98164261      10.81364767      11.36058613
Al       0.02292008       8.65693596      15.13457857
Al       0.01575345      10.81156697      17.04410483
Al       2.00226089       8.64706107      17.02600213
Al       1.98334891      10.82018653      15.13302810
Al      -0.00888676      12.96376418       0.01114478
Al      -0.01225941      15.13686747       1.88205079
Al       1.98186348      12.95965003       1.90037411
Al       1.97522015      15.12790410      -0.00158790
Al      -0.02039939      12.97762149       3.77428938
Al      -0.00232933      15.14771963       5.68335115
Al       1.98154788      12.96408341       5.67204196
Al       1.96220643      15.14540828       3.78529238
Al       0.01568694      12.99176968       7.56518127
Al       0.00508967      15.14006518       9.45902829
Al       1.99234809      12.97864537       9.48285319
Al       1.98746473      15.12537791       7.55889781
Al       0.00136181      12.96747090      11.35945806
Al       0.00052161      15.15186978      13.22663028
Al       1.98081588      12.96988680      13.24966663
Al       1.97359120      15.13426383      11.35307723
Al       0.00240707      12.99298198      15.13262647
Al      -0.00025444      15.13132507      17.02132019
Al       1.99323085      12.99850412      17.01794963
Al       1.98448991      15.13392082      15.12522973
Al      -0.00526499      17.30577144       0.00203316
Al      -0.00726335      19.47526847       1.87266255
Al       1.96729579      17.30906337       1.88856970
Al       1.98712443      19.47884776       0.01531254
Al      -0.00318628      17.29917741       3.79799448
Al       0.01211168      19.45220959       5.67204539
Al       1.95685366      17.31945723       5.68800839
Al       1.97216914      19.46155311       3.79020114
Al      -0.01895614      17.29912972       7.57223411
Al      -0.00963454      19.46471235       9.45498979
Al       1.97645391      17.29621165       9.46194456
Al       1.97178398      19.47299863       7.57843930
Al      -0.01225918      17.30048432      11.35824699
Al       0.00148809      19.44658359      13.24634060
Al       1.98865056      17.30440197      13.22966924
Al       1.98343139      19.46984875      11.33979320
Al       0.01210911      17.29038402      15.13430970
Al       0.00691261      19.45962722      17.03696385
Al       1.98202235      17.30256948      17.01960605
Al       1.96567146      19.44711977      15.13814343
Al       3.97012950       0.00832664      -0.00642834
Al       3.94334494       2.17386894       1.87726916
Al       5.92981206      -0.00929740       1.90962056
Al       5.93301658       2.17275860      -0.00713291
Al       3.94550872       0.00725926       3.78493744
Al       3.95436756       2.14615542       5.67742561
Al       5.92601224      -0.00794657       5.67616950
Al       5.94399720       2.17067181       3.78452441
Al       3.93844829       0.00551088       7.57381000
Al       3.95828788       2.15561987       9.46748167
Al       5.93035275      -0.00323314       9.46217854
Al       5.94048468       2.15547331       7.55903588
Al       3.95181887      -0.01044012      11.35552323
Al       3.95409939       2.14107996      13.23381796
Al       5.95440990      -0.03136979      13.22625148
Al       5.93784303       2.16264558      11.35232477
Al       3.94069658      -0.00142920      15.13788630
Al       3.94733971       2.16552354      17.03175316
Al       5.94439053      -0.01106245      17.01400026
Al       5.93004406       2.17214653      15.12312974
Al       3.95726966       4.34016867       0.00626556
Al       3.96294046       6.49314826       1.89295938
Al       5.94099002       4.33416032       1.87845345
Al       5.94800876       6.49288883      -0.01363840
Al       3.95646959       4.33042257       3.78494198
Al       3.97887622       6.51097888       5.67080351
Al       5.93959890       4.31966425       5.67765069
Al       5.94540243       6.47921018       3.78122068
Al       3.95266554       4.32163700       7.56164431
Al       3.95282571       6.48618056       9.46304116
Al       5.93794965       4.34205220       9.46825519
Al       5.92050839       6.48753240       7.57264161
Al       3.95207858       4.33512044      11.35391583
Al       3.94446027       6.49097638      13.24724424
Al       5.93574710       4.31166184      13.22708723
Al       5.94464501       6.46555076      11.36380963
Al       3.96351681       4.32342473      15.14045420
Al       3.94467477       6.49067362      17.04231569
Al       5.92424479       4.32797648      17.02276926
Al       5.92764549       6.48024567      15.14823788
Al       3.94429401       8.65139883      -0.00282233
Al       3.95117114      10.80442357       1.89033212
Al       5.93462959       8.64434216       1.89855470
Al       5.93058440      10.82801775      -0.00814722
Al       3.96193232       8.63813453       3.77739232
Al       3.97240485      10.82153930       5.68461284
Al       5.94948777       8.63664610       5.69472126
Al       5.93245570      10.81543892       3.78286684
Al       3.95044360       8.65393180       7.56075973
Al       3.94451164      10.80560106       9.45310471
Al       5.94057814       8.65056206       9.46616607
Al       5.93528248      10.80134343       7.57381721
Al       3.96885153       8.65906216      11.35119832
Al       3.95135709      10.82176063      13.22920162
Al       5.94810001       8.65609597      13.23635063
Al       5.93255940      10.80396813      11.35989059
Al       3.94864049       8.66711307      15.13574192
Al       3.94576118      10.82004384      17.02377865
Al       5.91820958       8.63532912      17.03432329
Al       5.91919920      10.80917595      15.13540517
Al       3.94019457      12.96071753      -0.00043280
Al       3.96061971      15.14732438       1.88643050
Al       5.93972106      12.97452406       1.87222850
Al       5.94654896      15.12173950       0.00190478
Al       3.97259201      12.97704706       3.77633063
Al       3.96833961      15.15473316       5.68953803
Al       5.93489741      12.96870924       5.68477774
Al       5.94403782      15.13290927       3.77450623
Al       3.94431626      13.00183791       7.56897129
Al       3.95031046      15.15442576       9.43607706
Al       5.92787901      12.96871816       9.44420903
Al       5.94682320      15.13816289       7.56814651
Al       3.96441794      12.98793598      11.35483462
Al       3.95534694      15.14002087      13.23291813
Al       5.94294317      12.97625098      13.23811634
Al       5.90616525      15.11150856      11.35114884
Al       3.95360844      12.97354263      15.13564581
Al       3.96165476      15.14935381      17.03194652
Al       5.93417142      12.96052719      17.02786230
Al       5.94666584      15.14972702      15.13917276
Al       3.94420678      17.31833198      -0.01741246
Al       3.95137917      19.45227331       1.89780996
Al       5.92454431      17.30936901       1.88548415
Al       5.94722040      19.47168988       0.00921730
Al       3.95863988      17.30088152       3.77757653
Al       3.95902210      19.48583892       5.66507476
Al       5.93621026      17.30495208       5.68612631
Al       5.95865495      19.44570586       3.78027949
Al       3.96800038      17.29709727       7.56434331
Al       3.96448042      19.46883084       9.46597715
Al       5.92699089      17.30404327       9.46351473
Al       5.93356553      19.47005559       7.58491796
Al       3.96109124      17.29424573      11.35477942
Al       3.97608704      19.46295431      13.24536032
Al       5.92480213      17.30120607      13.24409548
Al       5.93636364      19.45165750      11.33996315
Al       3.95172536      17.30559371      15.14200425
Al       3.95778915      19.46648012      17.03543386
Al       5.93171721      17.32447206      17.03687513
Al       5.94432697      19.46271047      15.12362339
Al       7.91238931      -0.01121526      -0.00920660
Al       7.91429910       2.16140174       1.88707520
Al       9.88509775       0.00518817       1.88283392
Al       9.88447293       2.16142879       0.01035700
Al       7.92325608       0.01003707       3.77798970
Al       7.91014585       2.15919832       5.68143866
Al       9.89355304      -0.00819295       5.67992284
Al       9.88398361       2.17827031       3.77355693
Al       7.90598336       0.00045969       7.57090067
Al       7.92913854       2.16224546       9.43944604
Al       9.88465756       0.00864020       9.47095147
Al       9.87957798       2.16111844       7.56519163
Al       7.90821530       0.01314283      11.35380499
Al       7.93194838       2.15807732      13.24531680
Al       9.89970644       0.00074040      13.24223161
Al       9.89127542       2.15357759      11.34599015
Al       7.92992026       0.00695095      15.16058961
Al       7.91994279       2.15917869      17.02325386
Al       9.88623072       0.01975544      17.02024464
Al       9.87462345       2.16975704      15.13712560
Al       7.90593323       4.33529962      -0.01385148
Al       7.92442180       6.49256639       1.88575191
Al       9.88591146       4.32578612       1.89687671
Al       9.90046077       6.48556632       0.00624433
Al       7.92582402       4.32030603       3.78753929
Al       7.91494024       6.46391170       5.67460477
Al       9.88292934       4.33673900       5.68772447
Al       9.90777108       6.49808959       3.75827493
Al       7.90860103       4.33590109       7.55151915
Al       7.91164761       6.46353831       9.46232121
Al       9.87506361       4.31359696       9.46537664
Al       9.87619751       6.47127913       7.56432973
Al       7.90405782       4.32983443      11.35605151
Al       7.91987409       6.50350940      13.24373204
Al       9.88597677       4.34603286      13.22922759
Al       9.89075059       6.49092690      11.35110108
Al       7.91326321       4.31708250      15.12996413
Al       7.90843266       6.47565759      17.03730609
Al       9.88396696       4.32082949      17.03105487
Al       9.88601028       6.47486951      15.12866736
Al       7.90538485       8.65322874      -0.01859098
Al       7.90862056      10.83264634       1.89065272
Al       9.88872754       8.66758749       1.90016874
Al       9.88498229      10.82418297      -0.00656582
Al       7.92397764       8.65812327       3.80961109
Al       7.92200401      10.82273370       5.68196361
Al       9.90184653       8.66063066       5.67234473
Al       9.89722735      10.81717506       3.78306671
Al       7.89399772       8.65185111       7.58795608
Al       7.91046494      10.83068008       9.44857233
Al       9.89146103       8.65954758       9.45831735
Al       9.90037961      10.80472217       7.57569474
Al       7.90334417       8.65405463      11.35435646
Al       7.91078871      10.80783441      13.23386005
Al       9.90894250       8.64286665      13.24197445
Al       9.86456429      10.80536924      11.36821976
Al       7.91651678       8.64917248      15.14989873
Al       7.91805906      10.82059000      17.01646809
Al       9.88193458       8.64761420      17.01533111
Al       9.88601587      10.82626830      15.12156413
Al       7.91340146      12.97687295      -0.00834617
Al       7.93600012      15.14464792       1.89639740
Al       9.91764591      12.97345962       1.89346802
Al       9.88086138      15.13989197       0.00719124
Al       7.93016180      12.97719744       3.79191282
Al       7.90996542      15.13580650       5.66368079
Al       9.90853753      12.96285263       5.67801474
Al       9.88842416      15.13394536       3.80522489
Al       7.90691404      12.97441377       7.56393456
Al       7.91978141      15.14050642       9.45519696
Al       9.90219501      12.97737847       9.46187619
Al       9.89626816      15.14230039       7.55754316
Al       7.91708205      12.98981033      11.35001702
Al       7.89241259      15.12743897      13.23180027
Al       9.89937901      12.97028118      13.24533813
Al       9.88483569      15.12901294      11.35766423
Al       7.90701580      12.96352559      15.13211585
Al       7.91830302      15.12794091      17.03251388
Al       9.88754860      12.96566794      17.03209400
Al       9.89985188      15.13287114      15.13917838
Al       7.90772067      17.31243409      -0.01118023
Al       7.90654785      19.45817418       1.89587691
Al       9.87324734      17.29694453       1.91129230
Al       9.88806150      19.45669388       0.00345059
Al       7.93258464      17.28371561       3.79233982
Al       7.90800538      19.46089778       5.67885204
Al       9.89875969      17.30487128       5.66910043
Al       9.90737113      19.48156127       3.78626288
Al       7.92291530      17.33174137       7.58176300
Al       7.90828085      19.46306020       9.47214930
Al       9.89268414      17.28825856       9.46828359
Al       9.91415151      19.47417510       7.57332118
Al       7.90831895      17.30076801      11.35155549
Al       7.90809570      19.47853097      13.24542283
Al       9.89701787      17.28097998      13.25022014
Al       9.87265839      19.46092518      11.35026343
Al       7.92210436      17.30539554      15.13729123
Al       7.89719451      19.46398878      17.02268963
Al       9.89917825      17.29256082      17.03714870
Al       9.89986610      19.46223436      15.14132865
Al      11.88096258      -0.01226434      -0.01071996
Al      11.85969125       2.13143529       1.90453494
Al      13.84065477       0.01647360       1.89313279
Al      13.83067640       2.14981743       0.00060687
Al      11.88379892       0.00671467       3.77174759
Al      11.86204788       2.16957723       5.66734314
Al      13.84967481       0.00943748       5.67943532
Al      13.84196721       2.16617191       3.78970866
Al      11.85995793      -0.01136692       7.56141125
Al      11.88114869       2.15918949       9.45605280
Al      13.85061322       0.00460391       9.45329059
Al      13.85494325       2.16669973       7.55242355
Al      11.88413128       0.01674995      11.34661814
Al      11.87857580       2.16468417      13.25758208
Al      13.83782458       0.00232758      13.25160174
Al      13.84503205       2.16532266      11.35363011
Al      11.86188569      -0.00814213      15.12694804
Al      11.86730389       2.15243617      17.03369472
Al      13.83534278       0.00303152      17.03881478
Al      13.84613662       2.16205907      15.15761710
Al      11.87039532       4.31665827       0.00443796
Al      11.87716530       6.49814726       1.91058799
Al      13.85721707       4.32401882       1.90430601
Al      13.85201678       6.49398418      -0.00598657
Al      11.87102576       4.33213148       3.77137608
Al      11.87613086       6.50607555       5.68727351
Al      13.82989341       4.32900206       5.67148697
Al      13.85466795       6.49718054       3.77484620
Al      11.86459917       4.32660660       7.56983675
Al      11.86718208       6.50095388       9.45316532
Al      13.83234734       4.32865648       9.45587375
Al      13.84146129       6.49319726       7.58400100
Al      11.88331006       4.31422397      11.35366098
Al      11.86333600       6.48243445      13.25379346
Al      13.83691779       4.32698461      13.25089917
Al      13.86424568       6.48985197      11.35667648
Al      11.85502505       4.31378645      15.13713339
Al      11.88123034       6.48358066      17.03313924
Al      13.84135038       4.33067762      17.01954272
Al      13.85815503       6.49323721      15.14747267
Al      11.87041100       8.64801779      -0.01973760
Al      11.86668638      10.82483417       1.90321367
Al      13.85153791       8.66095012       1.89903064
Al      13.83677726      10.81086630      -0.00534573
Al      11.87602660       8.64106856       3.79223591
Al      11.87803586      10.81703859       5.69611678
Al      13.84074494       8.65477747       5.66657048
Al      13.86766026      10.80592611       3.78776550
Al      11.86989876       8.66048678       7.58087155
Al      11.87219294      10.82471529       9.47533503
Al      13.84155216       8.64522056       9.44848986
Al      13.83786058      10.81997163       7.57707384
Al      11.88611498       8.66045876      11.35282884
Al      11.87009970      10.82071806      13.25140325
Al      13.83099273       8.66253696      13.25760583
Al      13.83844917      10.81412633      11.36466615
Al      11.87015273       8.63074600      15.15223266
Al      11.86759498      10.81546974      17.00549103
Al      13.84435493       8.65083028      17.03572943
Al      13.84781066      10.82562715      15.13685288
Al      11.86812231      12.96796732      -0.00010713
Al      11.87158805      15.14067622       1.90302883
Al      13.84333958      12.98507602       1.90105852
Al      13.84732453      15.14794475      -0.00128954
Al      11.88583318      12.99060712       3.78453909
Al      11.85458872      15.15210510       5.67478197
Al      13.86608218      12.97878157       5.69898316
Al      13.84218937      15.14230399       3.76778986
Al      11.86455852      12.97787865       7.55158847
Al      11.87001732      15.13248054       9.45276040
Al      13.85375029      12.98106161       9.45670955
Al      13.85092244      15.13495075       7.55853605
Al      11.84753423      12.96507888      11.34120211
Al      11.85733005      15.15706061      13.25448575
Al      13.84941513      12.97964985      13.25853277
Al      13.85637970      15.15157285      11.36361815
Al      11.86223398      12.96821038      15.13756296
Al      11.87424617      15.14249080      17.01764420
Al      13.84009123      12.97498220      17.02296711
Al      13.84678303      15.14064119      15.14595582
Al      11.85999971      17.28604193      -0.00543904
Al      11.84936055      19.46875486       1.90062383
Al      13.85382148      17.29622577       1.86346337
Al      13.83891113      19.45449304       0.00333135
Al      11.86819501      17.30466990       3.79193894
Al      11.87805969      19.46070930       5.65770795
Al      13.85122865      17.30689887       5.67462166
Al      13.84328059      19.47356312       3.78317611
Al      11.87246074      17.30355113       7.56598659
Al      11.87639984      19.45673131       9.46871082
Al      13.83097165      17.31031161       9.43011036
Al      13.85189477      19.45834193       7.56554350
Al      11.86206373      17.29791212      11.33252959
Al      11.86778037      19.48558577      13.23523048
Al      13.83622327      17.31663356      13.22969411
Al      13.84631159      19.47259359      11.35170583
Al      11.86550119      17.30700220      15.12517679
Al      11.87893391      19.46838401      17.02420995
Al      13.85456119      17.30248255      17.03153397
Al      13.85155685      19.46175498      15.13080245
Al      15.81245764      -0.00703181      -0.00841593
Al      15.82775705       2.15659845       1.87643297
Al      17.81185238      -0.00906445       1.88027466
Al      17.80001643       2.15889220       0.00982404
Al      15.82833223      -0.02150107       3.79525685
Al      15.82606512       2.18095285       5.68909590
Al      17.79212206       0.00240793       5.67494010
Al      17.79144153       2.16663915       3.80124855
Al      15.81467773       0.00906291       7.53660401
Al      15.81818774       2.15457775       9.47484458
Al      17.80510530      -0.00223479       9.46067294
Al      17.81277424       2.14556577       7.56299708
Al      15.83184320       0.01582966      11.35659987
Al      15.81699032       2.15385983      13.23884102
Al      17.79867071      -0.01336394      13.23172897
Al      17.80141396       2.17576444      11.33746897
Al      15.82433253      -0.01785405      15.13776969
Al      15.82064614       2.16601144      17.02698146
Al      17.79960595      -0.01428812      17.02727453
Al      17.81776476       2.16642008      15.14198874
Al      15.81395771       4.34506656      -0.01651393
Al      15.82336124       6.48779402       1.89584828
Al      17.80858358       4.32790468       1.89703368
Al      17.79528560       6.47843750       0.00825027
Al      15.82694873       4.31002159       3.78994916
Al      15.83519667       6.49301860       5.67892464
Al      17.80997963       4.33684835       5.69572739
Al      17.80124606       6.48445741       3.78933517
Al      15.83508576       4.32432097       7.56839538
Al      15.83661093       6.48606516       9.45461637
Al      17.82971950       4.33353690       9.47222137
Al      17.79395667       6.47693417       7.55901960
Al      15.81761458       4.32900757      11.33970404
Al      15.82672945       6.48413584      13.24048588
Al      17.80193805       4.33616132      13.23678338
Al      17.80426496       6.48498514      11.35281033
Al      15.82600285       4.32500238      15.13513227
Al      15.81573176       6.48165345      17.04576063
Al      17.80390520       4.33849013      17.04027071
Al      17.79184626       6.50989517      15.12321497
Al      15.82920991       8.65963175       0.00724183
Al      15.84338509      10.82174545       1.89025432
Al      17.79701235       8.65256068       1.88506183
Al      17.79765574      10.83030747      -0.00791111
Al      15.82972185       8.65101074       3.77028527
Al      15.82816034      10.82927293       5.67854841
Al      17.78000620       8.64824484       5.69357005
Al      17.82377741      10.79716362       3.80049460
Al      15.83113592       8.67557878       7.56833731
Al      15.79706648      10.80525859       9.46356029
Al      17.79523155       8.66278659       9.45906506
Al      17.80357297      10.81547643       7.54872223
Al      15.83274463       8.67083400      11.35083735
Al      15.82946478      10.79390052      13.24626486
Al      17.80129955       8.65624740      13.24081626
Al      17.79878554      10.81475822      11.34226834
Al      15.82824504       8.64804536      15.13384296
Al      15.83919493      10.81041013      17.03174153
Al      17.81793370       8.65936868      17.03330670
Al      17.79668442      10.79628461      15.13362990
Al      15.82378271      12.98394946      -0.00086192
Al      15.82268661      15.13778673       1.89659158
Al      17.81270966      12.98556519       1.89347368
Al      17.79704057      15.13505399       0.00449431
Al      15.81806048      12.97381921       3.77863153
Al      15.83378787      15.13250383       5.68206236
Al      17.82265796      12.97465131       5.66535713
Al      17.81146778      15.14147446       3.79271040
Al      15.83229949      12.98164967       7.56480972
Al      15.81958326      15.15061326       9.45819405
Al      17.79474965      12.97841089       9.44597380
Al      17.81974342      15.14973039       7.56350901
Al      15.82905179      12.97006395      11.35283986
Al      15.83690604      15.15499076      13.23170817
Al      17.79463898      12.98479596      13.24595696
Al      17.81056360      15.14849791      11.36101477
Al      15.82545743      12.97815641      15.13769011
Al      15.81517459      15.13363784      17.02304688
Al      17.80030193      12.98717574      17.01650391
Al      17.79276436      15.12815900      15.13777251
Al      15.81700327      17.31417198      -0.01125548
Al      15.82398080      19.47328417       1.89044712
Al      17.80079988      17.29600418       1.87721651
Al      17.80893822      19.45545178       0.00140616
Al      15.82925739      17.29825326       3.77323036
Al      15.81908043      19.45656395       5.67774463
Al      17.81023366      17.29657456       5.68915886
Al      17.80324099      19.48181479       3.78660827
Al      15.81481179      17.31003116       7.55887589
Al      15.82280055      19.47007451       9.46462086
Al      17.78989370      17.31024440       9.43868456
Al      17.80201015      19.45198998       7.57007475
Al      15.82059501      17.30217606      11.33700650
Al      15.83574399      19.46182898      13.25225928
Al      17.80633418      17.28234689      13.22967323
Al      17.79599823      19.46830251      11.34660109
Al      15.82206320      17.30994406      15.14521107
Al      15.82949951      19.46442003      17.02966525
Al      17.82521064      17.29862754      17.03113407
Al      17.80091943      19.47445115      15.12628679
