256
Lattice="10.78996696147044 0.0 0.0 0.0 13.095284157423986 0.0 0.0 0.0 12.60444610442904" Properties=species:S:1:pos:R:3 id=sample_000083 pbc="F F F"
Fe      -0.00657430       0.00128687       0.01413790
Fe       0.01440583       1.61901275       1.58793490
Fe       1.32920901       0.01438764       1.58463017
Fe       1.34704426       1.64268714       0.01016017
Fe      -0.00651822       0.01734920       3.14871897
Fe       0.01682488       1.64952051       4.73347833
Fe       1.35812883       0.00583386       4.72113615
Fe       1.34757824       1.63868815       3.15187462
Fe       0.00590680      -0.01444766       6.28052279
Fe      -0.01757130       1.63519453       7.88504399
Fe       1.33929713      -0.00419227       7.87362181
Fe       1.33658043       1.64113774       6.30039674
Fe      -0.00591859       0.01450421       9.43284850
Fe       0.02049694       1.63480123      11.02317542
Fe       1.35490607       0.00006597      11.01113919
Fe       1.34578668       1.63914840       9.46806885
Fe      -0.01436492       3.27072221       0.00548185
Fe       0.00240948       4.92444479       1.59673289
Fe       1.35118563       3.27324585       1.58063936
Fe       1.33402481       4.91792455       0.01353143
Fe       0.01170672       3.26806593       3.15601452
Fe       0.00649533       4.91424342       4.73143231
Fe       1.34799969       3.27682840       4.74163478
Fe       1.31814964       4.90766903       3.14063650
Fe       0.00636104       3.27497648       6.28332979
Fe      -0.00167170       4.89505963       7.89411810
Fe       1.36146321       3.25772309       7.87420169
Fe       1.33391930       4.92120771       6.28736927
Fe      -0.01442148       3.27678385       9.44816703
Fe      -0.01441012       4.91293443      11.03566517
Fe       1.35854429       3.28320201      11.03842867
Fe       1.35651985       4.92330756       9.45220481
Fe       0.01145560       6.55121414      -0.00072537
Fe       0.01180347       8.17877123       1.55725814
Fe       1.34396493       6.55522566       1.56053169
Fe       1.35004171       8.19138920       0.01387776
Fe      -0.00619374       6.55322915       3.13828137
Fe      -0.01138537       8.19001952       4.73644768
Fe       1.35962541       6.52192935       4.72556366
Fe       1.34899983       8.18500860       3.14588180
Fe       0.00653900       6.53679189       6.30727118
Fe       0.00178407       8.17238424       7.86575099
Fe       1.35960443       6.55229003       7.88605667
Fe       1.34155738       8.19149046       6.28725747
Fe      -0.00745745       6.55065622       9.45382412
Fe      -0.00656286       8.18159328      11.02582210
Fe       1.33564917       6.55108389      11.03548216
Fe       1.34044298       8.17849487       9.44669318
Fe       0.00888131       9.82325759       0.00854129
Fe       0.00668770      11.46215598       1.58519851
Fe       1.34679925       9.84086944       1.57616702
Fe       1.35185356      11.45413139      -0.01011444
Fe       0.00261608       9.81628487       3.16117637
Fe      -0.01310629      11.47873914       4.72962830
Fe       1.33302753       9.81639194       4.72579793
Fe       1.32250873      11.45189105       3.13651215
Fe       0.00210462       9.81080479       6.28887884
Fe      -0.00034518      11.46349406       7.87521219
Fe       1.34110623       9.83252156       7.89409538
Fe       1.35676856      11.44172586       6.29499399
Fe      -0.00213500       9.82457362       9.46217056
Fe      -0.00869388      11.45431701      11.03021869
Fe       1.36202249       9.82877153      11.03145977
Fe       1.35357867      11.45997183       9.44633499
Fe       2.69692996       0.01282471       0.00929293
Fe       2.70335603       1.64083392       1.58078744
Fe       4.04095320       0.00176702       1.57725273
Fe       4.05755946       1.64549762       0.00059761
Fe       2.70992271       0.00036989       3.15546277
Fe       2.70901571       1.65023427       4.74229174
Fe       4.04627187       0.00065783       4.73790689
Fe       4.06317351       1.64351133       3.14552961
Fe       2.72143878      -0.01113547       6.29448007
Fe       2.69187564       1.63249859       7.87937806
Fe       4.04438450      -0.01058822       7.88116791
Fe       4.04576296       1.64928280       6.31969130
Fe       2.71006324       0.00081035       9.43718289
Fe       2.68530604       1.64432769      11.04193319
Fe       4.05156270      -0.01640582      11.02992787
Fe       4.03851775       1.63285680       9.44674870
Fe       2.69334034       3.28286697      -0.00988028
Fe       2.69568651       4.91216179       1.60091553
Fe       4.06129547       3.27419805       1.58282442
Fe       4.04758288       4.91223020       0.01615294
Fe       2.70826008       3.28478118       3.15452513
Fe       2.70444075       4.90827891       4.71362024
Fe       4.05164210       3.26293881       4.72839850
Fe       4.02421572       4.92505986       3.15660308
Fe       2.70793180       3.27057250       6.31991417
Fe       2.68833853       4.90405539       7.88285092
Fe       4.02794266       3.27751296       7.88504019
Fe       4.04712158       4.89904800       6.30677120
Fe       2.70658450       3.29010985       9.45706319
Fe       2.70158955       4.89577738      11.01735782
Fe       4.03547813       3.28111985      11.01954689
Fe       4.05231593       4.91439601       9.48492764
Fe       2.70284319       6.53341968      -0.01447457
Fe       2.71477022       8.16828772       1.56992450
Fe       4.05611585       6.54442323       1.56925861
Fe       4.03898337       8.19961204      -0.00573525
Fe       2.71661586       6.54335148       3.15606536
Fe       2.70205614       8.17532660       4.73222317
Fe       4.04383171       6.54229478       4.71241014
Fe       4.05649326       8.20234774       3.14845404
Fe       2.67718130       6.54571534       6.29023256
Fe       2.67019093       8.16867497       7.87982519
Fe       4.04168589       6.54613453       7.88706558
Fe       4.05320233       8.19138558       6.31554108
Fe       2.68840018       6.54834845       9.43912067
Fe       2.67358071       8.19388002      11.02682230
Fe       4.03844565       6.54657223      11.01675048
Fe       4.05093509       8.17977181       9.47024099
Fe       2.69828832       9.82399483      -0.00254174
Fe       2.68606701      11.47057028       1.58720441
Fe       4.03359616       9.83172329       1.57066362
Fe       4.03866095      11.46494404      -0.01105544
Fe       2.71216652       9.83039538       3.15303334
Fe       2.70356050      11.45608577       4.71035483
Fe       4.06193247       9.81508057       4.72721612
Fe       4.03927011      11.45578654       3.14273681
Fe       2.71479751       9.81949863       6.30042874
Fe       2.69012376      11.46176791       7.88498973
Fe       4.05301723       9.82490372       7.87246513
Fe       4.05864997      11.46500821       6.31685326
Fe       2.69012018       9.83866363       9.44618933
Fe       2.69107755      11.45365421      11.02845096
Fe       4.05001634       9.84227056      11.03618622
Fe       4.04729005      11.45548958       9.45116361
Fe       5.40575640       0.00392285       0.01140738
Fe       5.40774135       1.64705503       1.58791174
Fe       6.74291102      -0.00076016       1.56780657
Fe       6.74232697       1.63815912      -0.01578633
Fe       5.39583235       0.00244834       3.16667410
Fe       5.41384181       1.63215199       4.72830892
Fe       6.74524576       0.00560663       4.75165741
Fe       6.75685960       1.64799324       3.13522911
Fe       5.39095769      -0.00232136       6.30446875
Fe       5.39201753       1.62671654       7.90670450
Fe       6.75363022       0.00761734       7.86512497
Fe       6.73607079       1.65426491       6.29408118
Fe       5.39041709       0.00282458       9.46291796
Fe       5.39673963       1.61985492      11.01809850
Fe       6.74033363      -0.01139045      11.03158085
Fe       6.75019412       1.65347447       9.45580332
Fe       5.39454832       3.24269971       0.00067581
Fe       5.38546250       4.91391827       1.59218833
Fe       6.74930286       3.27436057       1.58137598
Fe       6.72825800       4.92994275      -0.01212565
Fe       5.39022226       3.27692469       3.16317421
Fe       5.38991264       4.92704769       4.71734325
Fe       6.74177279       3.28154182       4.71397744
Fe       6.73847416       4.92760201       3.14399894
Fe       5.39428886       3.29196224       6.29642235
Fe       5.39115931       4.91017976       7.85984227
Fe       6.75413815       3.28062547       7.88025110
Fe       6.73627584       4.90581740       6.30057628
Fe       5.41796125       3.28551414       9.44690818
Fe       5.38887288       4.92406066      11.03321400
Fe       6.71243349       3.26204574      11.02424712
Fe       6.72585642       4.90753783       9.45238827
Fe       5.40366162       6.55853065      -0.00867774
Fe       5.40074530       8.17371520       1.57823005
Fe       6.73718540       6.55737931       1.57793901
Fe       6.74429937       8.16881223       0.01162293
Fe       5.39611159       6.53802537       3.16112171
Fe       5.39601266       8.16889936       4.74816962
Fe       6.74128736       6.53777524       4.72286319
Fe       6.72556670       8.18130482       3.16273364
Fe       5.39119302       6.54657334       6.30801103
Fe       5.37401175       8.18158159       7.87116835
Fe       6.74805543       6.56313244       7.89931737
Fe       6.76652250       8.19017939       6.29057525
Fe       5.37844380       6.53906559       9.45219275
Fe       5.39125007       8.20702699      11.04684751
Fe       6.74887799       6.54187482      11.02114174
Fe       6.73345254       8.17971621       9.47358404
Fe       5.40561455       9.82379115       0.00319089
Fe       5.40167516      11.44392077       1.59468337
Fe       6.74826916       9.80795460       1.57579479
Fe       6.74010697      11.45171490       0.00744114
Fe       5.39541771       9.82401215       3.14326029
Fe       5.41027291      11.46298328       4.72371354
Fe       6.76659221       9.80689943       4.72810421
Fe       6.74931049      11.44263610       3.14809201
Fe       5.40190769       9.82056685       6.29329226
Fe       5.42174130      11.45224243       7.88454771
Fe       6.73629438       9.82523435       7.87708497
Fe       6.73960373      11.46300084       6.29126683
Fe       5.38041157       9.82327569       9.45485554
Fe       5.39967329      11.45561740      11.01738091
Fe       6.74936574       9.81916533      11.02474376
Fe       6.74988694      11.45827711       9.44294286
Fe       8.11337532       0.00581069      -0.01492955
Fe       8.08522929       1.62663984       1.56126561
Fe       9.44304317       0.01021148       1.58029343
Fe       9.43825746       1.63250480       0.00526125
Fe       8.09332998       0.00497632       3.15108291
Fe       8.10413687       1.64015729       4.73053878
Fe       9.43545053       0.00485275       4.73336121
Fe       9.44529664       1.63565491       3.14760055
Fe       8.09959211       0.00888998       6.32137958
Fe       8.09217249       1.63060060       7.87856318
Fe       9.43586359      -0.01099087       7.88917498
Fe       9.45535818       1.64821373       6.27843808
Fe       8.08841384       0.00387219       9.45184360
Fe       8.07543356       1.64851030      11.02663676
Fe       9.43380660       0.01377809      11.01830633
Fe       9.44397923       1.65089717       9.44299201
Fe       8.09166052       3.28670445       0.00301642
Fe       8.10628662       4.92164836       1.58074240
Fe       9.42456452       3.27619426       1.57324426
Fe       9.45852200       4.91005129      -0.00710109
Fe       8.11271327       3.27712304       3.14284139
Fe       8.10214239       4.93720271       4.72504820
Fe       9.44855218       3.27417386       4.73840784
Fe       9.43786196       4.89564576       3.14706116
Fe       8.08985641       3.29065161       6.30203863
Fe       8.09094893       4.90866670       7.87336641
Fe       9.42909258       3.25491792       7.88259903
Fe       9.45430534       4.93230266       6.29348917
Fe       8.10713211       3.26701822       9.44472641
Fe       8.07898209       4.92019328      11.04217684
Fe       9.43947891       3.27548741      11.04314947
Fe       9.43654607       4.90056306       9.43303376
Fe       8.08573329       6.55296904       0.00500801
Fe       8.08226892       8.17696055       1.57871335
Fe       9.42780993       6.56093557       1.58171838
Fe       9.44651949       8.19234792      -0.01132691
Fe       8.07756938       6.53999703       3.14084041
Fe       8.07769079       8.21018135       4.74228575
Fe       9.45448413       6.55984323       4.73469924
Fe       9.43262789       8.18820464       3.15304400
Fe       8.07943249       6.54602175       6.31804465
Fe       8.09163714       8.18858265       7.87477704
Fe       9.45900060       6.54354058       7.88086512
Fe       9.44092063       8.17837761       6.29357202
Fe       8.08873249       6.54506016       9.45400334
Fe       8.08745358       8.20456686      11.02790916
Fe       9.43382918       6.54319892      11.03164577
Fe       9.43607071       8.18905242       9.45076927
Fe       8.08684714       9.83326702       0.00339056
Fe       8.09130872      11.46397480       1.57136510
Fe       9.44804767       9.80974543       1.59215314
Fe       9.43601812      11.45511283       0.01095315
Fe       8.08525245       9.82534345       3.13476926
Fe       8.08952636      11.45535703       4.72148416
Fe       9.44322941       9.82185253       4.72195776
Fe       9.45479421      11.46201953       3.14305503
Fe       8.07784379       9.83112513       6.29705359
Fe       8.10001323      11.44924384       7.86953165
Fe       9.44320303       9.82837130       7.88702571
Fe       9.43415637      11.45462538       6.29656477
Fe       8.09961422       9.83587504       9.44188086
Fe       8.09283491      11.45388312      11.00725202
Fe       9.44273882       9.79665075      11.05298014
Fe       9.43381442      11.44937522       9.44001256
