500
Lattice="22.42195607878007 0.0 0.0 0.0 20.172799429859896 0.0 0.0 0.0 25.746570493432387" Properties=species:S:1:pos:R:3 id=sample_000366 pbc="F F F"
Al      -0.01500905       0.00689452       0.00269145
Al       0.00570029       2.00271897       2.56530473
Al       2.26362937      -0.01029118       2.56960390
Al       2.21828930       1.96358171      -0.01323030
Al      -0.00268871      -0.01428392       5.14129131
Al       0.01183648       2.00948631       7.72837866
Al       2.23582137       0.02303089       7.72063371
Al       2.23144907       2.00602127       5.15540055
Al       0.01911246      -0.00445317      10.29853964
Al      -0.02882043       2.03597202      12.87324589
Al       2.23402612       0.02011943      12.86799351
Al       2.26562064       2.05294566      10.30352126
Al      -0.00993673       0.00169611      15.44535581
Al      -0.01211224       2.00888032      17.99679430
Al       2.20493772       0.00205282      18.00705555
Al       2.27128525       2.00146276      15.40945849
Al      -0.00111600      -0.00004015      20.61553735
Al       0.00071194       1.99416348      23.16901018
Al       2.24568875       0.01140982      23.16965415
Al       2.22579054       1.99543133      20.57568258
Al      -0.00776830       4.03466197       0.01787619
Al      -0.00600378       6.05350749       2.58105457
Al       2.22505316       4.04543339       2.58455438
Al       2.22489329       6.06681918      -0.01253064
Al       0.00162550       4.01823002       5.16968245
Al       0.00597443       6.08419127       7.68536990
Al       2.24327575       4.03648421       7.70343535
Al       2.23940327       6.05050178       5.17091594
Al       0.00384649       4.01802232      10.31778179
Al       0.01159382       6.06056413      12.88771934
Al       2.22841494       4.04380322      12.89127812
Al       2.23882606       6.07974831      10.32040031
Al      -0.01109689       4.02780881      15.46467433
Al      -0.00840372       6.04516937      18.00750823
Al       2.23208851       4.01683472      18.01556403
Al       2.25220720       6.05394697      15.43162678
Al       0.01986224       4.05470758      20.60049800
Al      -0.01688638       6.01455758      23.16678299
Al       2.23524081       4.03893207      23.17757305
Al       2.23726944       6.05385662      20.58994573
Al       0.03135027       8.06730085      -0.02301551
Al      -0.01207725      10.11217358       2.56944831
Al       2.22557195       8.06263591       2.58386936
Al       2.21605940      10.09887975       0.01444607
Al       0.00215267       8.07646778       5.13912915
Al      -0.00297024      10.07526898       7.72529533
Al       2.26336024       8.04974426       7.73892479
Al       2.25269912      10.10266262       5.15260207
Al      -0.00570004       8.09991356      10.31148556
Al       0.01897635      10.08613947      12.87462929
Al       2.22976613       8.07099144      12.86501825
Al       2.22354995      10.04138936      10.29866933
Al       0.02809515       8.06557741      15.43548605
Al       0.00769745      10.08351096      17.99475462
Al       2.24448951       8.06579791      18.02051896
Al       2.24866249      10.09523313      15.47033645
Al      -0.00191024       8.07734021      20.59122901
Al      -0.01476275      10.11136085      23.19382979
Al       2.25339865       8.09835583      23.16323836
Al       2.25920131      10.07692782      20.59539414
Al       0.01504349      12.08749114       0.00739029
Al      -0.01462715      14.13401057       2.57843824
Al       2.23318817      12.09251206       2.57111618
Al       2.25172297      14.11271052       0.00067023
Al       0.02178498      12.11439809       5.15428146
Al      -0.02147689      14.11555552       7.75471050
Al       2.26491371      12.09309635       7.71417496
Al       2.22877465      14.11823606       5.13756022
Al      -0.01429043      12.12849532      10.30182613
Al       0.00092560      14.11444394      12.90208317
Al       2.22900918      12.11303507      12.87867606
Al       2.22460943      14.12340872      10.30251784
Al      -0.00306483      12.09096252      15.44314067
Al       0.01234138      14.10526846      18.04623635
Al       2.23051332      12.09405753      18.03641284
Al       2.23238530      14.09354126      15.46043772
Al       0.01057724      12.10779509      20.60196915
Al       0.00857275      14.10863944      23.18583670
Al       2.21979455      12.12495101      23.19161902
Al       2.24069383      14.14298116      20.60188575
Al       0.03123980      16.15292142      -0.01089689
Al       0.00579833      18.16366047       2.57657534
Al       2.24243481      16.13587372       2.58014977
Al       2.24275484      18.14588764       0.03229896
Al      -0.00203536      16.14472045       5.12094467
Al      -0.02322044      18.17282451       7.70870589
Al       2.22050820      16.15904899       7.71634187
Al       2.23872286      18.15248294       5.15888865
Al       0.04031554      16.17309321      10.28640696
Al      -0.00680544      18.14368882      12.87204481
Al       2.22914170      16.13042453      12.88877018
Al       2.25547904      18.15317494      10.29317737
Al       0.02363370      16.14009744      15.43844310
Al      -0.00037029      18.15074514      18.01807617
Al       2.25292516      16.13941799      18.02547088
Al       2.24687454      18.14807981      15.44411694
Al       0.00054852      16.16112875      20.60766001
Al      -0.00532601      18.16778842      23.18434137
Al       2.25167830      16.16029301      23.18268701
Al       2.24215628      18.16881992      20.62105095
Al       4.47735169      -0.00239457       0.00043273
Al       4.50309238       1.99171583       2.58825729
Al       6.71967404      -0.02122458       2.58380871
Al       6.72196416       2.01301024      -0.00761799
Al       4.49696976      -0.00457006       5.14862754
Al       4.46581305       1.99500042       7.69253048
Al       6.72746163       0.00730648       7.70756093
Al       6.70505944       2.01800478       5.15083756
Al       4.45129454       0.00456402      10.29682953
Al       4.49482407       2.02864969      12.87507405
Al       6.71855153      -0.00938202      12.84919187
Al       6.73602683       2.01557520      10.31612375
Al       4.50272541       0.00273419      15.44531045
Al       4.49570574       2.03241973      18.00646461
Al       6.71221274       0.00682919      18.01107729
Al       6.73847202       2.03799091      15.42995220
Al       4.46801453       0.00463262      20.60959448
Al       4.49217663       2.04009482      23.16166451
Al       6.73424666       0.00172820      23.17514120
Al       6.73889615       1.98718468      20.58399285
Al       4.48013326       4.00960860      -0.00207116
Al       4.47684221       6.02067423       2.55613577
Al       6.74548319       4.05515095       2.56686007
Al       6.73629715       6.03974483       0.00930422
Al       4.50115989       4.03746710       5.14533684
Al       4.49568337       6.04621115       7.71590321
Al       6.73176936       4.03703123       7.72333925
Al       6.75540920       6.04082062       5.11034421
Al       4.49835721       4.06466181      10.28001009
Al       4.49416355       6.04990655      12.85339410
Al       6.72325472       4.04480806      12.89019791
Al       6.72067104       6.06029301      10.27624392
Al       4.46250601       4.03447246      15.44741591
Al       4.49560790       6.02498334      18.02963017
Al       6.73748390       4.02551266      18.00341586
Al       6.72584975       6.04124073      15.46474534
Al       4.46220370       3.99866059      20.56605456
Al       4.46646767       6.06520810      23.15297742
Al       6.73536498       4.03515711      23.18474493
Al       6.74180901       6.04776315      20.58589727
Al       4.46085234       8.07893055       0.01559226
Al       4.49447561      10.07969229       2.56758941
Al       6.72078428       8.06871964       2.56981848
Al       6.72966031      10.05599370      -0.00273622
Al       4.50199833       8.08658853       5.17238717
Al       4.46757155      10.05835617       7.70161331
Al       6.74606905       8.06674508       7.72869398
Al       6.73436587      10.08133907       5.14259948
Al       4.48195130       8.07386961      10.31952083
Al       4.49284569      10.09508441      12.87456430
Al       6.70144750       8.06878364      12.87268137
Al       6.69948713      10.09625888      10.29062794
Al       4.47032879       8.07075608      15.44383426
Al       4.50170278      10.07296812      18.01716790
Al       6.73938793       8.07471255      17.99942000
Al       6.72214810      10.09430863      15.45442159
Al       4.47895174       8.07151484      20.59055832
Al       4.46538575      10.06679199      23.16134254
Al       6.72586949       8.03049593      23.15685407
Al       6.72285436      10.07291051      20.61431645
Al       4.47346032      12.09632395      -0.02556604
Al       4.46945874      14.13991845       2.55168961
Al       6.73353659      12.06898677       2.57975078
Al       6.72958961      14.12404120       0.00986266
Al       4.49053105      12.08809044       5.15477652
Al       4.50590750      14.15399638       7.71287806
Al       6.71026585      12.13347726       7.74674271
Al       6.74968235      14.10083696       5.15059934
Al       4.49746666      12.10671523      10.27026743
Al       4.47104642      14.13231931      12.85909654
Al       6.74214065      12.12565807      12.89549565
Al       6.72604102      14.15107376      10.32532521
Al       4.48255612      12.11925435      15.46928075
Al       4.47628459      14.10357611      18.01915701
Al       6.74095115      12.09552960      18.03536518
Al       6.72386378      14.12107764      15.43486012
Al       4.49010598      12.14660684      20.60131484
Al       4.48204454      14.12835530      23.16962394
Al       6.71826035      12.08926356      23.18233019
Al       6.75683422      14.11684064      20.61181657
Al       4.49600443      16.14556177       0.00883275
Al       4.48064783      18.16971721       2.55854819
Al       6.71602430      16.14334001       2.57386009
Al       6.73795951      18.14556949      -0.01074226
Al       4.46659529      16.14733401       5.14501216
Al       4.48761657      18.16874329       7.73286403
Al       6.73638034      16.11969344       7.71125419
Al       6.72367322      18.14971851       5.17996795
Al       4.50208170      16.14100804      10.27538380
Al       4.48579244      18.17417420      12.86170596
Al       6.74357764      16.12568126      12.87562790
Al       6.73796248      18.16741601      10.28291445
Al       4.50259658      16.14826800      15.45560443
Al       4.47490133      18.15143027      18.01513551
Al       6.70666430      16.10387277      18.00105622
Al       6.73370060      18.17048134      15.45770517
Al       4.48634699      16.13611568      20.60575722
Al       4.49029655      18.16287916      23.16823918
Al       6.74444513      16.12462578      23.16486251
Al       6.73879913      18.15055460      20.61044581
Al       8.97469838       0.00292954       0.00319049
Al       8.97227993       2.03287008       2.58726741
Al      11.22151240       0.01089411       2.58931882
Al      11.23715184       2.02396324      -0.00787710
Al       8.97956578       0.01587446       5.14924947
Al       8.95821534       1.98901771       7.73970468
Al      11.21602650      -0.03510779       7.71519653
Al      11.22798865       2.01530689       5.14861017
Al       8.95163346       0.00814266      10.30575913
Al       8.96855252       2.02354911      12.86730062
Al      11.21997486       0.01247210      12.86439520
Al      11.22497000       2.04684124      10.30695667
Al       8.97022758      -0.01945284      15.46532617
Al       8.96903621       2.01131549      18.00865649
Al      11.20934863       0.01458795      18.00913938
Al      11.22582217       2.02948392      15.43604980
Al       8.96881402      -0.00904800      20.59031435
Al       9.00102568       2.02453002      23.14068810
Al      11.19497478      -0.02337304      23.16770558
Al      11.21126989       1.98063321      20.59869701
Al       8.94844144       4.02398515      -0.01274516
Al       8.96664298       6.02102429       2.58429125
Al      11.20695800       4.01800103       2.57810920
Al      11.23397083       6.02827240      -0.00119057
Al       8.96179684       4.04054161       5.14095309
Al       8.94079385       6.03887956       7.72726385
Al      11.21727823       4.05349199       7.71009681
Al      11.21759019       6.06163040       5.15135114
Al       8.97205842       4.01868621      10.28891472
Al       8.97666451       6.05678095      12.87366780
Al      11.19082542       4.01229726      12.88201720
Al      11.22416381       6.06305830      10.32706892
Al       8.96954922       4.03680997      15.45454281
Al       8.97615193       6.06004709      18.02083046
Al      11.18350809       4.03574132      18.02199772
Al      11.22088759       6.04095233      15.42134172
Al       8.97790321       4.05796083      20.61286401
Al       8.97557465       6.06759249      23.17069578
Al      11.20480286       4.08154122      23.16854887
Al      11.20914425       6.04757798      20.59843994
Al       8.94950891       8.04651206       0.01281657
Al       8.96969662      10.09051559       2.58156719
Al      11.20639282       8.05822591       2.58162724
Al      11.22377517      10.09019729       0.02242455
Al       8.98089054       8.07525115       5.15746035
Al       8.98181735      10.06279687       7.71595212
Al      11.21304285       8.09768650       7.72400819
Al      11.19710088      10.08923918       5.12010032
Al       8.95172000       8.07931721      10.29413046
Al       8.97125163      10.09083335      12.84303575
Al      11.21434775       8.07319795      12.86482790
Al      11.22962262      10.07205698      10.32444378
Al       8.94633364       8.06104594      15.43660794
Al       8.98855456      10.07538979      18.00831203
Al      11.20374963       8.07461394      18.02280398
Al      11.20597456      10.08221444      15.45770807
Al       8.97759157       8.05960990      20.59878668
Al       8.96461406      10.06615650      23.16101052
Al      11.24162407       8.07563736      23.20408823
Al      11.20040321      10.09575361      20.58401802
Al       8.97383181      12.07481991       0.02193323
Al       8.95535793      14.11871903       2.55943898
Al      11.21936126      12.11452034       2.57849597
Al      11.20295573      14.11216923      -0.00194318
Al       8.96658404      12.08209154       5.15398768
Al       8.95091781      14.13297355       7.73105187
Al      11.22341063      12.11830024       7.72322911
Al      11.21527285      14.10945492       5.12538165
Al       8.96092180      12.11076710      10.30036763
Al       8.99016468      14.11249876      12.86622122
Al      11.20147539      12.09673293      12.86814685
Al      11.22950193      14.11175738      10.28811332
Al       8.95203825      12.11662030      15.43213278
Al       8.97085595      14.13099616      18.04810214
Al      11.19874509      12.11866668      18.04964025
Al      11.19577732      14.12442122      15.47099170
Al       8.94705015      12.08819326      20.61114412
Al       8.98449080      14.11847876      23.17123222
Al      11.22096680      12.10752588      23.17042971
Al      11.19505840      14.10050439      20.57788336
Al       8.96886403      16.16277656       0.01849685
Al       8.97391185      18.18195395       2.56874346
Al      11.21890476      16.11520072       2.57801758
Al      11.20303138      18.16631140      -0.01502448
Al       8.96857726      16.11997388       5.14780749
Al       8.96940930      18.15290502       7.72034842
Al      11.19162074      16.15199435       7.69723050
Al      11.21379870      18.17327006       5.14687982
Al       8.99116355      16.12064363      10.29058909
Al       8.99647552      18.15811121      12.86131740
Al      11.18827532      16.17158865      12.88007324
Al      11.20231188      18.17356306      10.29122912
Al       8.95295653      16.14959730      15.41848693
Al       8.94920670      18.16239799      18.03260190
Al      11.21194026      16.12294986      18.00863823
Al      11.20217593      18.15764774      15.44891553
Al       9.00089984      16.15039871      20.60843957
Al       8.95661345      18.14742553      23.16949916
Al      11.20583299      16.13128448      23.16897312
Al      11.19087054      18.16101837      20.62917688
Al      13.45232491      -0.01546775      -0.01420195
Al      13.43869266       2.01098487       2.59354332
Al      15.67877698       0.00507385       2.58739955
Al      15.71261956       2.03225877       0.02604255
Al      13.46195298      -0.00826933       5.15779390
Al      13.42492117       2.01964192       7.71838785
Al      15.70942959       0.00759715       7.70277597
Al      15.68300504       2.00818674       5.13421097
Al      13.46480277      -0.00535207      10.30799231
Al      13.45170154       2.01665427      12.85148538
Al      15.70443355      -0.01289964      12.88458546
Al      15.68365506       2.02154590      10.31463055
Al      13.47885818       0.00020295      15.42386659
Al      13.44593848       2.00472633      18.03595299
Al      15.69841394       0.00627433      18.02996278
Al      15.73082818       2.01270926      15.44038244
Al      13.45473953       0.02276888      20.63270684
Al      13.45142369       2.00627512      23.17196675
Al      15.69200800       0.00611725      23.16804656
Al      15.69667358       2.02062833      20.60559428
Al      13.49620328       4.03281152      -0.00725039
Al      13.44417043       6.07830055       2.57492154
Al      15.69585644       4.03379215       2.56793823
Al      15.67490720       6.02649502       0.00067371
Al      13.45700024       4.01531194       5.15597815
Al      13.44108473       6.05442477       7.72421669
Al      15.70054283       4.04179978       7.72775726
Al      15.69477254       6.08299952       5.15156990
Al      13.46114817       4.01945313      10.32927989
Al      13.44875056       6.06419051      12.86176387
Al      15.71274648       4.02350628      12.86902598
Al      15.71014339       6.08956089      10.30538179
Al      13.46691885       4.04264618      15.42373833
Al      13.44651340       6.04695723      18.02223606
Al      15.70712406       4.01998140      18.04509476
Al      15.67970620       6.05999173      15.45839590
Al      13.45045605       4.02112208      20.61130124
Al      13.43270905       6.06077642      23.16724890
Al      15.68483766       4.02404626      23.13944279
Al      15.69132361       6.06523503      20.59076117
Al      13.46085664       8.07511439      -0.01975234
Al      13.44932247      10.09710575       2.54828020
Al      15.71337778       8.06924771       2.56336675
Al      15.69574630      10.10515438       0.01686625
Al      13.44708162       8.07453886       5.16385098
Al      13.45573010      10.07990564       7.71608815
Al      15.70818436       8.07439844       7.73400948
Al      15.69588582      10.07888801       5.15960285
Al      13.45951797       8.08154438      10.29142684
Al      13.47017701      10.07616328      12.87016031
Al      15.70189371       8.07237134      12.87659403
Al      15.67069767      10.07883881      10.29920608
Al      13.46481671       8.08278662      15.46406953
Al      13.44200815      10.07626027      18.01405037
Al      15.67940559       8.05334000      18.01901044
Al      15.68451235      10.11174405      15.42647563
Al      13.43829233       8.06907375      20.58266526
Al      13.44724256      10.06185285      23.18212008
Al      15.69466509       8.05401096      23.16701648
Al      15.69734916      10.09254965      20.58576488
Al      13.43640225      12.09898583      -0.00296560
Al      13.42393671      14.11367431       2.56935469
Al      15.68771956      12.12501039       2.57609284
Al      15.68465539      14.11559769       0.01655883
Al      13.44826359      12.09550234       5.14352692
Al      13.41403990      14.09164407       7.71409671
Al      15.67592936      12.09974856       7.71023677
Al      15.68771522      14.14528490       5.16804057
Al      13.46399055      12.09067574      10.31156685
Al      13.46058141      14.11367939      12.87982187
Al      15.68459653      12.11503032      12.85954613
Al      15.67768702      14.12041615      10.29731079
Al      13.43778587      12.11907897      15.45109699
Al      13.42743223      14.11215461      18.03099421
Al      15.69343999      12.10899612      18.03536303
Al      15.71612766      14.13201899      15.42302593
Al      13.42965357      12.11197284      20.61018983
Al      13.45558471      14.10223688      23.16235048
Al      15.70079331      12.09119761      23.15504366
Al      15.68159200      14.11068757      20.60011026
Al      13.45495207      16.15058667       0.02924338
Al      13.44910999      18.13566880       2.54582953
Al      15.68029451      16.12666379       2.57085213
Al      15.69749849      18.13500322       0.00271423
Al      13.44110503      16.11711585       5.15728816
Al      13.45730385      18.16480265       7.72881689
Al      15.70145373      16.16426447       7.74566007
Al      15.69311005      18.16831839       5.14707554
Al      13.46269652      16.12555778      10.30553120
Al      13.43927986      18.17456849      12.86152129
Al      15.69704305      16.11617310      12.84614441
Al      15.69839304      18.15005581      10.29726440
Al      13.45136634      16.16860595      15.46557968
Al      13.46324137      18.16006557      18.03929654
Al      15.72181652      16.15527141      18.03432782
Al      15.71212566      18.16200334      15.42785174
Al      13.43155942      16.12863101      20.58973725
Al      13.45129195      18.16667434      23.19296221
Al      15.68200228      16.15601205      23.15375104
Al      15.71282394      18.16272395      20.58594875
Al      17.94690149      -0.00932874      -0.01003848
Al      17.94936521       2.00004535       2.60971327
Al      20.18436203      -0.01135685       2.57338464
Al      20.17813065       2.01076983       0.00634857
Al      17.91328522       0.00174114       5.16087421
Al      17.94708787       2.02871724       7.69241588
Al      20.16078344      -0.01511992       7.70496974
Al      20.17421039       2.05565497       5.15970447
Al      17.92413652      -0.01897004      10.30910613
Al      17.92174500       2.05053835      12.88454667
Al      20.17680499       0.01010812      12.84400709
Al      20.17094454       2.03645546      10.30873669
Al      17.92184235      -0.00896472      15.44112949
Al      17.94913413       2.00421177      18.04744728
Al      20.18267468      -0.00056946      18.01333781
Al      20.18232394       2.01555091      15.42507519
Al      17.93697738       0.02284347      20.59665967
Al      17.92423038       2.03450797      23.17886340
Al      20.17967846      -0.01913454      23.18481127
Al      20.18723403       2.00185515      20.59197356
Al      17.95199945       4.04566043      -0.00243714
Al      17.92249686       6.04204379       2.56968798
Al      20.16710977       4.01529981       2.58253098
Al      20.20457059       6.04215463      -0.00575979
Al      17.94540749       4.04933743       5.15958763
Al      17.91169341       6.07210288       7.72929539
Al      20.16037898       4.00909311       7.74277597
Al      20.18506346       6.04439281       5.12933762
Al      17.90793268       4.03994411      10.29608857
Al      17.94970685       6.03302432      12.85998415
Al      20.18214847       4.03199187      12.88701628
Al      20.16238548       6.07348075      10.28197083
Al      17.93104584       4.02016675      15.44596011
Al      17.92866711       6.04239288      18.00029225
Al      20.19010207       4.04548106      18.04370325
Al      20.18684906       6.06399630      15.42518474
Al      17.93709557       4.04921504      20.60780317
Al      17.93046251       6.03489930      23.17808646
Al      20.18511136       4.02215122      23.17359123
Al      20.16687706       6.03386632      20.56866302
Al      17.95072945       8.05653632       0.00717412
Al      17.95073492      10.10177852       2.56539295
Al      20.17717527       8.07047378       2.58028204
Al      20.16541527      10.10143318       0.01228414
Al      17.95333700       8.04682369       5.12379818
Al      17.93553524      10.09698534       7.70477827
Al      20.16342181       8.07711844       7.70241569
Al      20.18236800      10.10308537       5.17173911
Al      17.94054122       8.04197829      10.29265843
Al      17.92491729      10.09004266      12.88126225
Al      20.18218534       8.06151318      12.87718785
Al      20.17363136      10.07137903      10.30925427
Al      17.93691764       8.08083935      15.42513455
Al      17.94171731      10.09881425      18.04266146
Al      20.15801011       8.08191326      18.01960544
Al      20.19167649      10.10108541      15.42813510
Al      17.94877821       8.06268514      20.60013946
Al      17.92425674      10.07263126      23.14713661
Al      20.17103160       8.05478588      23.16687499
Al      20.15706052      10.07900899      20.59131448
Al      17.94015230      12.11904186       0.02528644
Al      17.92076927      14.13808118       2.57135827
Al      20.18895156      12.09741588       2.59447898
Al      20.16907717      14.11940618       0.02508190
Al      17.91629017      12.11298455       5.14402393
Al      17.96388321      14.12571654       7.72334785
Al      20.18020988      12.08860148       7.74166034
Al      20.19472991      14.13440091       5.14669450
Al      17.89624731      12.09652842      10.30372688
Al      17.95712609      14.13117000      12.87206650
Al      20.19431355      12.10866664      12.89151412
Al      20.19437772      14.11024499      10.31738030
Al      17.93221190      12.10631731      15.44193778
Al      17.93360561      14.11259653      17.99702388
Al      20.17774139      12.11257687      18.02812006
Al      20.18160892      14.10781400      15.43615011
Al      17.90358255      12.14548184      20.62340111
Al      17.92615595      14.10290893      23.18595716
Al      20.17120611      12.07202723      23.17677233
Al      20.15867169      14.13206954      20.60675553
Al      17.93007320      16.14228204       0.00657232
Al      17.92641781      18.15610773       2.56011723
Al      20.17589882      16.13320048       2.55719901
Al      20.19957268      18.15784044       0.01851971
Al      17.93458773      16.14577143       5.16502146
Al      17.95482065      18.16415511       7.71171074
Al      20.17571982      16.15340640       7.70602149
Al      20.18615288      18.14582613       5.12906598
Al      17.94615774      16.16232275      10.31434598
Al      17.92981664      18.14052973      12.89808817
Al      20.18303202      16.13940231      12.90054501
Al      20.18265508      18.18583765      10.32102800
Al      17.94565701      16.12918688      15.45625876
Al      17.95822350      18.16761341      18.01080375
Al      20.17700118      16.13342045      18.01461517
Al      20.20095508      18.17542607      15.49574317
Al      17.91664654      16.13414152      20.57460410
Al      17.94155352      18.14973248      23.18567366
Al      20.17132328      16.12775967      23.19688536
Al      20.18530269      18.17369996      20.62187778
