256
Lattice="13.107091528393644 0.0 0.0 0.0 14.55042330163775 0.0 0.0 0.0 17.447021219666215" Properties=species:S:1:pos:R:3 id=sample_001171 pbc="F F F"
Cu       0.00382783       0.01211974      -0.01099100
Cu       0.00243945       1.79325232       2.17859645
Cu       1.64572650      -0.03063865       2.19424550
Cu       1.65522167       1.82490535      -0.00995647
Cu      -0.01337616       0.01282272       4.34878663
Cu      -0.00742651       1.80783593       6.53108190
Cu       1.61155686       0.00713048       6.55604156
Cu       1.61891479       1.79218933       4.34618122
Cu      -0.01156214       0.02126655       8.72906092
Cu       0.01784241       1.79961796      10.91803762
Cu       1.63658487      -0.00933241      10.88010079
Cu       1.62346049       1.83479183       8.72618165
Cu       0.01077637       0.02633030      13.08164406
Cu      -0.00173449       1.81590578      15.26592115
Cu       1.67082510      -0.00369641      15.26216725
Cu       1.61939896       1.80706323      13.07999317
Cu       0.00268571       3.64134541       0.01100308
Cu      -0.00805664       5.44586072       2.16429526
Cu       1.62520944       3.63209847       2.18484758
Cu       1.62129975       5.45894831      -0.02614698
Cu       0.01371174       3.64410732       4.36981791
Cu       0.00764565       5.45885123       6.55485233
Cu       1.63438042       3.64049830       6.52543123
Cu       1.64779042       5.47578139       4.35320381
Cu      -0.01389209       3.62925704       8.71779460
Cu       0.00068526       5.47803570      10.89562452
Cu       1.64269323       3.65252118      10.88347003
Cu       1.62650920       5.45603151       8.71600494
Cu      -0.00622097       3.62608449      13.10803607
Cu      -0.01062963       5.46042820      15.25568955
Cu       1.65105670       3.64284020      15.27308858
Cu       1.63714747       5.44624622      13.08817577
Cu       0.00966041       7.28029038      -0.00586791
Cu       0.00720455       9.08355022       2.17869735
Cu       1.63473439       7.28270382       2.17127980
Cu       1.64200256       9.11013355       0.02981445
Cu      -0.00484046       7.27165732       4.37834182
Cu      -0.01311328       9.09732957       6.55769243
Cu       1.65245499       7.28782158       6.53217525
Cu       1.63020646       9.10913383       4.38171120
Cu       0.00126274       7.26605556       8.71114628
Cu       0.00193423       9.06335620      10.90471668
Cu       1.61629745       7.26485205      10.88947454
Cu       1.62998588       9.09491941       8.73735249
Cu      -0.00899671       7.29814496      13.07258193
Cu      -0.00695617       9.11622221      15.28319211
Cu       1.64239122       7.27578083      15.27457192
Cu       1.62358885       9.08518194      13.07647578
Cu       0.00670442      10.91141684      -0.00509610
Cu      -0.00064431      12.71693884       2.20186768
Cu       1.65705026      10.91822038       2.17286829
Cu       1.65405934      12.72549096      -0.01993325
Cu      -0.02084770      10.89765824       4.36039117
Cu       0.02508130      12.73774131       6.54089425
Cu       1.62083229      10.92829818       6.52198602
Cu       1.61767555      12.72594963       4.38581412
Cu       0.01663121      10.89833375       8.71057767
Cu       0.00528296      12.74183847      10.87936829
Cu       1.62323131      10.90217721      10.92199704
Cu       1.61358204      12.73576381       8.69971855
Cu      -0.00286951      10.93969622      13.07878444
Cu       0.00914691      12.74129959      15.25907288
Cu       1.63916877      10.92353835      15.25805103
Cu       1.62382982      12.73586283      13.09982780
Cu       3.28368863       0.00884061      -0.00641053
Cu       3.27497719       1.84437670       2.16227421
Cu       4.92181904       0.00245611       2.19846632
Cu       4.91692029       1.81046854      -0.01239749
Cu       3.27695266      -0.01269544       4.37676603
Cu       3.27731259       1.82284797       6.53696183
Cu       4.93400690       0.00026726       6.53624014
Cu       4.89875991       1.80096774       4.35390113
Cu       3.28217060       0.01797961       8.72915396
Cu       3.27701371       1.80335565      10.89276543
Cu       4.92581159       0.00894709      10.93684113
Cu       4.90322659       1.82999370       8.72284841
Cu       3.28913192       0.01204743      13.04921607
Cu       3.26278979       1.80088287      15.26009016
Cu       4.90932632      -0.01724875      15.28003914
Cu       4.91301217       1.80906952      13.11825438
Cu       3.28179937       3.62513843      -0.01345370
Cu       3.29310123       5.43985522       2.17431752
Cu       4.92558514       3.66970319       2.18915153
Cu       4.92210365       5.45587911      -0.01783870
Cu       3.26060641       3.64563624       4.36772199
Cu       3.31428476       5.45648494       6.52187107
Cu       4.89753785       3.65806650       6.54496518
Cu       4.90677864       5.45457013       4.35018807
Cu       3.25734178       3.64609492       8.73707391
Cu       3.30707411       5.44987831      10.90717668
Cu       4.92320186       3.65357546      10.89985230
Cu       4.88094475       5.46784730       8.75075406
Cu       3.26917634       3.62979705      13.07880696
Cu       3.27123549       5.46338216      15.26654609
Cu       4.91473634       3.62441878      15.25794515
Cu       4.91995763       5.45822948      13.08655565
Cu       3.28950720       7.29229072       0.00053826
Cu       3.27193991       9.08722436       2.19610832
Cu       4.92907833       7.28174351       2.16930227
Cu       4.91387300       9.07682155       0.00487879
Cu       3.26492115       7.30406510       4.34807757
Cu       3.28410994       9.10178133       6.51972876
Cu       4.90791176       7.27684196       6.54851334
Cu       4.91972097       9.09968982       4.34394875
Cu       3.28082822       7.27502515       8.71252121
Cu       3.29521483       9.07092776      10.89205798
Cu       4.92161450       7.30064090      10.89177873
Cu       4.91173688       9.07418515       8.71873991
Cu       3.27292374       7.28630898      13.09332979
Cu       3.28607933       9.09702115      15.25403221
Cu       4.91803327       7.27721067      15.26904720
Cu       4.94725782       9.08923442      13.08731455
Cu       3.30115865      10.91431156      -0.00937104
Cu       3.27837990      12.71478009       2.18124797
Cu       4.91373425      10.91707760       2.19039418
Cu       4.91159152      12.73447974      -0.00643266
Cu       3.27603876      10.89626741       4.35082936
Cu       3.29125286      12.73348083       6.52595784
Cu       4.92110393      10.91742244       6.54956894
Cu       4.91468257      12.71736514       4.35550813
Cu       3.29146865      10.93073798       8.73496845
Cu       3.29590147      12.73338456      10.92397413
Cu       4.88316049      10.91007990      10.88762409
Cu       4.89809367      12.71257431       8.72761290
Cu       3.28296930      10.92094409      13.08418119
Cu       3.24981567      12.74633797      15.25728841
Cu       4.92361144      10.92334119      15.27614521
Cu       4.91052880      12.73102852      13.07511891
Cu       6.54523635       0.00636149       0.01021577
Cu       6.54849995       1.80257542       2.17095657
Cu       8.18306947       0.00967975       2.20519338
Cu       8.20716592       1.83611911       0.00751336
Cu       6.54827605      -0.00967430       4.34135111
Cu       6.55224664       1.80032489       6.55618406
Cu       8.20950563      -0.00618457       6.56475014
Cu       8.18358910       1.85372752       4.34236755
Cu       6.55194516      -0.00972684       8.71993603
Cu       6.55991289       1.81174496      10.89172417
Cu       8.19187610      -0.01551875      10.89327134
Cu       8.18303306       1.80129280       8.72657215
Cu       6.52606906       0.01481649      13.10725859
Cu       6.54277680       1.84897122      15.27901248
Cu       8.18547656      -0.00158474      15.26803206
Cu       8.21502603       1.81116383      13.06920158
Cu       6.55071679       3.64779562      -0.00751497
Cu       6.56296336       5.47602891       2.19415266
Cu       8.16293568       3.66037408       2.16134433
Cu       8.18810878       5.45786625       0.00353667
Cu       6.58840171       3.64029338       4.39488190
Cu       6.55767909       5.44465806       6.53498597
Cu       8.19205209       3.62856515       6.52433608
Cu       8.17157221       5.44714657       4.36093734
Cu       6.54740000       3.64737022       8.72582539
Cu       6.55995961       5.44039430      10.89658599
Cu       8.19524576       3.64355002      10.89854968
Cu       8.18849696       5.45600339       8.71566711
Cu       6.54275431       3.63975587      13.07995565
Cu       6.54395637       5.46485474      15.25860550
Cu       8.18372800       3.64442450      15.25679998
Cu       8.19595825       5.48306899      13.08247175
Cu       6.55772426       7.25779764       0.02039963
Cu       6.56367603       9.07959553       2.19933119
Cu       8.16151875       7.25376631       2.21860928
Cu       8.19946591       9.10710574       0.00976971
Cu       6.52182895       7.28501774       4.35162182
Cu       6.55876630       9.08917314       6.53840709
Cu       8.17289345       7.26395267       6.55115693
Cu       8.18400771       9.11751966       4.36285072
Cu       6.58025816       7.28487917       8.73688909
Cu       6.55248943       9.08273813      10.91803649
Cu       8.16465812       7.27837066      10.89697905
Cu       8.19475443       9.09395491       8.72268807
Cu       6.53636400       7.30349000      13.10148021
Cu       6.54598138       9.09745658      15.25019392
Cu       8.19339569       7.27013332      15.25132531
Cu       8.18032747       9.07313847      13.10469779
Cu       6.56574166      10.89523615      -0.00364196
Cu       6.57705325      12.73065131       2.16423087
Cu       8.20133270      10.92954496       2.16400191
Cu       8.19737297      12.72796770      -0.00949118
Cu       6.54060078      10.93175444       4.35963108
Cu       6.55226103      12.71886967       6.55069162
Cu       8.18522202      10.90238142       6.55882216
Cu       8.21321682      12.72801219       4.33712510
Cu       6.55808410      10.92837872       8.72169757
Cu       6.51775570      12.75354355      10.89726768
Cu       8.19125474      10.91960500      10.91790190
Cu       8.18098296      12.71455312       8.73349600
Cu       6.56873093      10.91704058      13.04851448
Cu       6.52852855      12.73126905      15.27501205
Cu       8.20169201      10.89315308      15.26822944
Cu       8.19564335      12.73496223      13.08759962
Cu       9.83459153      -0.02377114       0.01140909
Cu       9.82692253       1.83433638       2.16966774
Cu      11.48305007       0.01141365       2.17825408
Cu      11.49275347       1.80571480      -0.01096984
Cu       9.82491036       0.02958253       4.34882776
Cu       9.82042753       1.83505466       6.54923062
Cu      11.49110431      -0.00398296       6.51550249
Cu      11.48213917       1.80921428       4.37221072
Cu       9.83417397       0.01554798       8.72495049
Cu       9.83561259       1.79229171      10.90291383
Cu      11.48099156      -0.02417806      10.88645328
Cu      11.44963676       1.82864801       8.72459803
Cu       9.83757876      -0.01735028      13.08296124
Cu       9.82270081       1.82930445      15.26796469
Cu      11.46464944      -0.02132746      15.25737711
Cu      11.44994070       1.80633457      13.09113491
Cu       9.82397457       3.61293327      -0.02493004
Cu       9.82256563       5.43636856       2.18447766
Cu      11.45650479       3.64324460       2.17671768
Cu      11.48076974       5.47407700       0.00322329
Cu       9.84767929       3.66337560       4.36775284
Cu       9.83825293       5.46344904       6.51777361
Cu      11.46825592       3.61633094       6.50038246
Cu      11.45455111       5.46740661       4.38273622
Cu       9.82926492       3.63385855       8.70469312
Cu       9.80813165       5.45532737      10.91351633
Cu      11.46669272       3.63931806      10.87643414
Cu      11.47022161       5.46665251       8.72551882
Cu       9.81626544       3.63791447      13.08554562
Cu       9.83228646       5.45200251      15.26189173
Cu      11.44513162       3.63920628      15.25703901
Cu      11.45470150       5.46034454      13.06870075
Cu       9.82695069       7.28370637       0.01816602
Cu       9.85885234       9.10503514       2.16069910
Cu      11.49940500       7.32761100       2.19607571
Cu      11.45126746       9.06596258      -0.00342940
Cu       9.82554587       7.30042691       4.35274041
Cu       9.83293867       9.08820537       6.56977863
Cu      11.49923335       7.27509358       6.54190620
Cu      11.46244371       9.09701698       4.35251549
Cu       9.82247819       7.26645394       8.73580904
Cu       9.82349346       9.08684601      10.89718536
Cu      11.45755837       7.26357308      10.90983772
Cu      11.44827288       9.06955262       8.70016832
Cu       9.81773476       7.22692250      13.09214179
Cu       9.84372041       9.09696387      15.25268921
Cu      11.46490785       7.25494959      15.25687023
Cu      11.50070392       9.10128153      13.06739662
Cu       9.83904543      10.90441532       0.01013832
Cu       9.81627922      12.75956269       2.17929305
Cu      11.48066130      10.90211460       2.18682265
Cu      11.47359587      12.74164433      -0.00227858
Cu       9.82211350      10.88272631       4.34519978
Cu       9.83575984      12.73166364       6.54321678
Cu      11.45777373      10.89214829       6.55870968
Cu      11.45000415      12.70374465       4.37922907
Cu       9.84761126      10.92198149       8.72286183
Cu       9.83637368      12.72771820      10.88461466
Cu      11.46004708      10.89930618      10.89798845
Cu      11.45610898      12.71759684       8.71387046
Cu       9.80012623      10.90521307      13.07237760
Cu       9.82495360      12.71129546      15.28058514
Cu      11.45492916      10.92454891      15.26718725
Cu      11.47195361      12.70082920      13.09432729
