256
Lattice="17.310862092563895 0.0 0.0 0.0 18.505016824510196 0.0 0.0 0.0 16.342852261007938" Properties=species:S:1:pos:R:3 id=sample_001645 pbc="F F F"
Cu      -0.00066430      -0.01282105       0.00205735
Cu       0.00926463       2.32190562       2.05094271
Cu       2.15020127       0.00655829       2.02810560
Cu       2.16103871       2.32791183       0.00585752
Cu      -0.00454803      -0.02625734       4.08003860
Cu       0.02559948       2.31007425       6.11311605
Cu       2.15447012       0.00876068       6.12500031
Cu       2.15408056       2.31002600       4.08025184
Cu      -0.00022684       0.00220769       8.17113218
Cu      -0.01059761       2.28035493      10.20622344
Cu       2.15951331       0.00253195      10.20606364
Cu       2.16567592       2.31524926       8.16217998
Cu      -0.01410626       0.00088225      12.24780154
Cu      -0.00906883       2.30438215      14.29909845
Cu       2.16350382       0.00690181      14.29321393
Cu       2.16674865       2.31435757      12.25302567
Cu       0.00176712       4.61215905      -0.01609981
Cu      -0.01609121       6.94470904       2.04238984
Cu       2.16331689       4.62603139       2.03766384
Cu       2.17731098       6.92377158      -0.00262271
Cu      -0.00519851       4.63599757       4.08750840
Cu       0.01892051       6.95575472       6.13902791
Cu       2.16306167       4.62156103       6.12145255
Cu       2.16307008       6.93837199       4.08427463
Cu      -0.01041636       4.62828319       8.16837134
Cu      -0.00420627       6.94221324      10.21586658
Cu       2.15685263       4.61602248      10.21925289
Cu       2.15610213       6.93081927       8.16619783
Cu      -0.00979565       4.64069573      12.25904150
Cu       0.00123663       6.94302774      14.30933073
Cu       2.16419993       4.63775642      14.30473419
Cu       2.15378729       6.95248797      12.25661033
Cu      -0.00999190       9.25293757      -0.00103422
Cu      -0.00514362      11.56302152       2.03267137
Cu       2.15230230       9.24846198       2.04468578
Cu       2.17408474      11.56336592      -0.02238990
Cu      -0.00635875       9.27280199       4.09082525
Cu       0.00992550      11.56678618       6.14560270
Cu       2.15232138       9.27503434       6.13954220
Cu       2.17537769      11.54646788       4.08739667
Cu       0.00275194       9.24123353       8.15539986
Cu       0.01164358      11.55702328      10.21883582
Cu       2.16084012       9.25175316      10.19840429
Cu       2.17323001      11.56714526       8.17541214
Cu       0.00623142       9.24139746      12.23817508
Cu       0.01586197      11.57259592      14.28829954
Cu       2.15861609       9.25737675      14.30681589
Cu       2.16586349      11.57602075      12.24854368
Cu      -0.00271950      13.88301643       0.00045861
Cu      -0.00482463      16.18005877       2.04208953
Cu       2.15719006      13.86837832       2.03285486
Cu       2.16584116      16.17771713       0.00120150
Cu      -0.00853970      13.89078630       4.10186895
Cu      -0.00132307      16.18722868       6.13816839
Cu       2.16308957      13.88725248       6.10966209
Cu       2.17467752      16.19152184       4.06983382
Cu       0.01095221      13.88386930       8.17288319
Cu       0.01007583      16.20228292      10.23639196
Cu       2.16115236      13.88188474      10.23063555
Cu       2.14785108      16.19364026       8.14547962
Cu       0.02996687      13.87504176      12.25605861
Cu       0.00982761      16.17918993      14.30722767
Cu       2.16923329      13.88942738      14.29002708
Cu       2.15599781      16.19574122      12.25940758
Cu       4.31734213      -0.00229729       0.00148586
Cu       4.33186830       2.30514480       2.05004974
Cu       6.49846723      -0.00550560       2.06518089
Cu       6.49519337       2.30465423      -0.01617038
Cu       4.33282776      -0.00508529       4.08586681
Cu       4.33720152       2.30227290       6.13734696
Cu       6.49915808      -0.00219599       6.13451695
Cu       6.48640282       2.33090272       4.08160480
Cu       4.32911951      -0.02302760       8.17791931
Cu       4.30706100       2.29162692      10.20263992
Cu       6.49444783      -0.01080308      10.20287693
Cu       6.48111264       2.30863492       8.16543347
Cu       4.32678284       0.00313441      12.24985348
Cu       4.33399819       2.30591645      14.29751227
Cu       6.48762598      -0.00774168      14.30494301
Cu       6.48116468       2.30290153      12.27002990
Cu       4.32864325       4.63652043       0.01997149
Cu       4.32252853       6.93001902       2.06105105
Cu       6.50881850       4.64146191       2.04868906
Cu       6.48604217       6.94361083      -0.00166574
Cu       4.33482978       4.62910335       4.07966797
Cu       4.31007717       6.93839252       6.12227986
Cu       6.49680624       4.62691110       6.11826681
Cu       6.48501946       6.93827037       4.07754814
Cu       4.32520246       4.62628900       8.17997038
Cu       4.33376295       6.94189633      10.18527059
Cu       6.49282942       4.63375351      10.20141399
Cu       6.49297661       6.94284184       8.16714079
Cu       4.34373101       4.61311427      12.26606353
Cu       4.33177627       6.94134229      14.29723379
Cu       6.48335778       4.61783639      14.28162975
Cu       6.50347756       6.93333288      12.25390804
Cu       4.32798801       9.25555240      -0.01151695
Cu       4.35001396      11.54588731       2.06589769
Cu       6.49351652       9.26601120       2.04659717
Cu       6.48242453      11.55396017       0.00416252
Cu       4.33252448       9.24394893       4.08013585
Cu       4.32833658      11.56472855       6.11528226
Cu       6.47889294       9.25539711       6.13301163
Cu       6.49992779      11.55369987       4.09433987
Cu       4.32219122       9.25511303       8.17852708
Cu       4.33176214      11.54925233      10.21204766
Cu       6.51047286       9.24150730      10.18985966
Cu       6.48440480      11.57910069       8.16210270
Cu       4.32695082       9.27152085      12.27402243
Cu       4.32404271      11.55893118      14.29265028
Cu       6.48225510       9.24713397      14.30471959
Cu       6.51973191      11.56875906      12.25585510
Cu       4.33094907      13.88304854      -0.00480979
Cu       4.32474959      16.19869117       2.01960009
Cu       6.48078777      13.87927085       2.04743024
Cu       6.48889033      16.19731633       0.00205771
Cu       4.33673772      13.87866545       4.07714426
Cu       4.33335243      16.17940398       6.13118067
Cu       6.49203329      13.86071238       6.11344387
Cu       6.49972222      16.19238670       4.07731863
Cu       4.33292779      13.86384924       8.18347394
Cu       4.32102359      16.19326660      10.20711471
Cu       6.50822757      13.87948054      10.20520934
Cu       6.48960068      16.20191625       8.16642939
Cu       4.32108986      13.87868956      12.26202563
Cu       4.32041300      16.17848847      14.30037674
Cu       6.48318283      13.86324208      14.30767382
Cu       6.49642686      16.19791730      12.25150076
Cu       8.66353775       0.01647769       0.01348554
Cu       8.64736571       2.31455861       2.04003132
Cu      10.82002067      -0.00578944       2.03767788
Cu      10.82763050       2.32829940       0.00383172
Cu       8.66870894      -0.00002120       4.09763732
Cu       8.65982736       2.32039969       6.11271495
Cu      10.80365525       0.00895586       6.11878209
Cu      10.82485613       2.32410915       4.08085650
Cu       8.65559955      -0.00394357       8.16893353
Cu       8.65069785       2.30850543      10.22837426
Cu      10.82814987      -0.00783014      10.23091066
Cu      10.82396859       2.33939701       8.15955042
Cu       8.65254514      -0.00117070      12.26567015
Cu       8.64847484       2.31890749      14.30007123
Cu      10.83971707      -0.00806859      14.31528645
Cu      10.83595022       2.31481755      12.25547626
Cu       8.66245976       4.62131279      -0.00353555
Cu       8.66792086       6.93454636       2.02989678
Cu      10.81670555       4.64355085       2.03773464
Cu      10.83767596       6.92167353       0.00221753
Cu       8.66276570       4.62152500       4.08557853
Cu       8.66062779       6.93241586       6.13341564
Cu      10.82543692       4.62290991       6.11976514
Cu      10.81435904       6.95943696       4.06444028
Cu       8.64967469       4.63286012       8.17711817
Cu       8.65935107       6.93361033      10.20255614
Cu      10.82377977       4.62355635      10.21273228
Cu      10.82260292       6.94778912       8.18486989
Cu       8.66473331       4.63806797      12.25657723
Cu       8.66744999       6.95580614      14.29999937
Cu      10.81748018       4.62888430      14.28757470
Cu      10.82271191       6.94762708      12.25379365
Cu       8.65795213       9.25859251      -0.00789589
Cu       8.64703390      11.55718964       2.04039059
Cu      10.82837951       9.25575208       2.05741218
Cu      10.81410737      11.56289932      -0.00127434
Cu       8.67005106       9.24072715       4.09397991
Cu       8.63911990      11.58864612       6.14305348
Cu      10.81469750       9.25857355       6.13002578
Cu      10.81863434      11.55574922       4.08882920
Cu       8.66410606       9.27159682       8.17701314
Cu       8.67092089      11.55967821      10.21217682
Cu      10.80927215       9.25344515      10.19770691
Cu      10.81299033      11.55790076       8.15512416
Cu       8.65857026       9.26928495      12.26622920
Cu       8.64615008      11.54143446      14.29855552
Cu      10.82205438       9.24498624      14.29775594
Cu      10.82020712      11.56304978      12.26067028
Cu       8.65617020      13.88831465      -0.00298295
Cu       8.65002513      16.19330460       2.04576005
Cu      10.83098024      13.88699504       2.03918632
Cu      10.81668622      16.17838341       0.00704055
Cu       8.65598961      13.85993780       4.07891171
Cu       8.64492361      16.17910520       6.12805450
Cu      10.82355556      13.87424271       6.16096614
Cu      10.84357438      16.19224339       4.08763956
Cu       8.66822404      13.86714079       8.16425826
Cu       8.67173024      16.18797926      10.19938651
Cu      10.82501392      13.87644442      10.21398958
Cu      10.82927250      16.17972544       8.17911764
Cu       8.66192358      13.89032047      12.26916159
Cu       8.65614246      16.18629751      14.28638849
Cu      10.82179304      13.87932345      14.30537354
Cu      10.82171087      16.18715407      12.24771621
Cu      12.98361090       0.00720834       0.00405381
Cu      12.97784447       2.32341992       2.02013015
Cu      15.13374103      -0.01173412       2.03802420
Cu      15.12654547       2.29875651       0.00720431
Cu      12.98039278      -0.00637469       4.07237481
Cu      12.98050848       2.31599568       6.12686607
Cu      15.15710492       0.01581330       6.12153636
Cu      15.13040002       2.31032387       4.09321591
Cu      12.98993752      -0.00217313       8.17912180
Cu      12.98209135       2.33521004      10.19759183
Cu      15.14881621       0.00391502      10.23197137
Cu      15.14349368       2.30373779       8.18110432
Cu      12.96003955      -0.00699143      12.27302487
Cu      12.97357189       2.30827631      14.27755858
Cu      15.14529386      -0.00133783      14.29236970
Cu      15.15078147       2.30791342      12.25610826
Cu      12.97741863       4.62964879      -0.01301407
Cu      12.97506135       6.93510280       2.03261620
Cu      15.14110946       4.64039676       2.01914539
Cu      15.14863788       6.93701388       0.00604880
Cu      12.97828189       4.61355121       4.08028113
Cu      13.00135002       6.94051313       6.12758586
Cu      15.14220924       4.62804039       6.12370233
Cu      15.14981666       6.91707632       4.09172948
Cu      12.98337285       4.62861699       8.16518474
Cu      12.97956540       6.94121449      10.21418353
Cu      15.15699145       4.62883107      10.19174460
Cu      15.15640214       6.92388377       8.16891884
Cu      12.98293851       4.60821006      12.25364378
Cu      12.97749275       6.95202742      14.31077652
Cu      15.15401990       4.61633540      14.31345216
Cu      15.13234290       6.95115660      12.26794155
Cu      12.97181005       9.25312198       0.01102175
Cu      12.97269403      11.56630157       2.05174951
Cu      15.15240083       9.25466677       2.02155586
Cu      15.14414833      11.57843442      -0.00911081
Cu      12.99319843       9.26045971       4.09068206
Cu      12.96287006      11.56613744       6.13770090
Cu      15.16256639       9.25873917       6.13464736
Cu      15.13976095      11.57329789       4.07849162
Cu      12.96064130       9.25370379       8.17279868
Cu      12.99216309      11.58442170      10.21953083
Cu      15.14914222       9.23756308      10.23253550
Cu      15.14168858      11.54941981       8.17125526
Cu      13.00000234       9.24546386      12.25132378
Cu      12.98140941      11.55834754      14.30940568
Cu      15.14618530       9.25390979      14.31099519
Cu      15.13242209      11.56473718      12.25331601
Cu      12.98712981      13.88749231       0.00700852
Cu      12.98118017      16.18929279       2.05086050
Cu      15.14689609      13.87890878       2.03599862
Cu      15.15120663      16.18923523       0.01192522
Cu      12.98552239      13.87832470       4.07209037
Cu      12.98099010      16.19813245       6.12449964
Cu      15.13752722      13.87821842       6.11955233
Cu      15.15337819      16.19773245       4.07923822
Cu      12.99046398      13.88011064       8.16908994
Cu      12.97905811      16.19384953      10.22213152
Cu      15.13893227      13.86685459      10.20190602
Cu      15.15480552      16.20183254       8.17406837
Cu      12.97396494      13.87599061      12.27929243
Cu      12.98713631      16.19428628      14.29523335
Cu      15.15208713      13.85993147      14.28987073
Cu      15.15114504      16.19429000      12.25389528
