500
Lattice="68.88713575075424 0.0 0.0 0.0 68.88713575075424 0.0 0.0 0.0 68.88713575075424" Properties=species:S:1:pos:R:3 id=sample_001469 pbc="T T T"
Al      21.80308099      21.79329895      21.77832867
Al      23.81415008      23.81760089      21.79608397
Al      25.84436676      25.80505409      21.77513096
Al      27.84416756      27.86001472      21.74346455
Al      29.89922729      29.90018516      21.79821350
Al      31.88598286      31.90574536      21.78109146
Al      33.91621387      33.93904194      21.79870435
Al      35.96587963      35.95664633      21.78706359
Al      37.98745531      37.97630993      21.80459799
Al      40.01178962      40.00486439      21.77560601
Al      42.02869993      42.01358923      21.77462311
Al      44.04890678      44.07556176      21.78010825
Al      23.77375306      21.79018543      23.82538528
Al      25.82549509      23.82352638      23.81460636
Al      27.86395869      25.84248517      23.81037979
Al      29.89601759      27.87043625      23.80640744
Al      31.89617992      29.87466720      23.81701903
Al      33.94936279      31.90489936      23.80395150
Al      35.95873645      33.94618899      23.81071679
Al      37.96113137      35.93995473      23.81211233
Al      40.01336573      37.97888646      23.80086414
Al      41.99738960      39.98030440      23.82282578
Al      44.05147254      42.04227772      23.79242768
Al      25.83229103      21.78911150      25.82936712
Al      27.84934893      23.78087634      25.82422294
Al      29.87099963      25.86812485      25.83419587
Al      31.88021945      27.84714643      25.82477259
Al      33.92044256      29.88252821      25.82188058
Al      35.94099559      31.90541329      25.81558394
Al      37.99780031      33.91867818      25.81068225
Al      40.02356319      35.96462038      25.84734825
Al      42.01214524      37.98488549      25.85851512
Al      44.05584591      39.99156819      25.84421448
Al      46.07921076      42.05641728      25.83116205
Al      27.84583218      21.77638249      27.85252697
Al      29.86917765      23.82064981      27.86052089
Al      31.89683847      25.83248135      27.84138612
Al      33.92188833      27.88643559      27.85173964
Al      35.94783409      29.87983927      27.83772211
Al      37.94762805      31.92042707      27.88128741
Al      40.00259643      33.92902170      27.86474439
Al      42.01790382      35.96797963      27.84033777
Al      44.08045411      37.95810242      27.84233211
Al      46.07725532      40.02083235      27.86278892
Al      29.88402322      21.77488875      29.88818747
Al      31.90390717      23.81082150      29.90146048
Al      33.93736695      25.84341380      29.87660962
Al      35.95363341      27.85168571      29.86040978
Al      37.98157899      29.88313754      29.87466406
Al      40.00208880      31.91457439      29.89618221
Al      42.03749177      33.95810924      29.90234024
Al      44.05845980      35.95393964      29.88341179
Al      46.09935313      37.99267137      29.88623523
Al      31.93184811      21.78889064      31.92489416
Al      33.93696101      23.82551028      31.90313874
Al      35.97273450      25.81008349      31.91697785
Al      37.99906674      27.86714250      31.87803220
Al      39.99819707      29.83930481      31.91170100
Al      42.03909544      31.91405448      31.91644165
Al      44.04198932      33.93113327      31.93462640
Al      46.09848402      35.97518945      31.91974398
Al      33.92729259      21.80136290      33.93184199
Al      35.94969076      23.80714746      33.92339014
Al      37.99234084      25.84418362      33.93485287
Al      39.99350908      27.83831001      33.90621511
Al      42.01861547      29.88899208      33.92684766
Al      44.06285593      31.90451475      33.90932296
Al      46.05857968      33.94587861      33.93500671
Al      48.09856557      35.93343100      33.93407818
Al      35.94266800      21.79394247      35.97206130
Al      37.99213162      23.78544654      35.96848743
Al      40.00790746      25.82740417      35.95381304
Al      42.02280299      27.84005202      35.95323673
Al      44.05956244      29.86304516      35.96078624
Al      46.05924044      31.90087056      35.96888991
Al      48.08135807      33.91245073      35.95692369
Al      37.98275627      21.78364493      37.96912728
Al      40.00822889      23.80811867      37.97491422
Al      42.04019784      25.85696323      37.97290730
Al      44.05180991      27.86489804      37.96931043
Al      46.07868878      29.88277719      37.99831374
Al      39.99343118      21.80272054      40.00365334
Al      42.03374571      23.79459960      40.00468808
Al      44.06029662      25.83139854      40.03984189
Al      46.07060631      27.88249275      40.01747015
Al      42.05919106      21.77537804      42.04609130
Al      44.05199311      23.81468023      42.04105200
Al      46.10176684      25.83918937      42.03202711
Al      44.06769533      21.79041669      44.05796550
Al      21.78212249      23.80233636      23.82980099
Al      23.78448638      25.82552957      23.81611561
Al      25.82979440      27.86777339      23.80077398
Al      27.85240949      29.90145964      23.79368640
Al      29.87078356      31.90945189      23.80434532
Al      31.91504010      33.93906408      23.82956507
Al      33.95088948      35.95995585      23.78408348
Al      35.97100252      37.97564174      23.82003886
Al      37.96527552      39.99104269      23.80100789
Al      39.99196238      42.02557912      23.79900448
Al      42.04116326      44.07467245      23.80735227
Al      23.80340632      23.83907453      25.85037958
Al      25.82901340      25.83446010      25.81085098
Al      27.86513004      27.87785761      25.81666487
Al      29.88745837      29.89388092      25.83734620
Al      31.91970645      31.92478009      25.84268775
Al      33.91474364      33.93631313      25.81904367
Al      35.96532611      35.97308569      25.80493155
Al      37.97681104      37.97075881      25.85150598
Al      39.99791359      40.00111293      25.82305995
Al      42.04389989      42.03169340      25.83732746
Al      44.05315676      44.06801885      25.83705336
Al      25.82896969      23.80685761      27.86194197
Al      27.86064155      25.80827748      27.84955623
Al      29.88924210      27.83433694      27.83594391
Al      31.91932702      29.89023921      27.85112404
Al      33.91058057      31.91506522      27.85420556
Al      35.96086847      33.93900787      27.84917610
Al      37.97962038      35.94405769      27.84181973
Al      40.01413707      37.98859537      27.84570443
Al      42.05507826      40.01748652      27.86371562
Al      44.05072003      42.01442308      27.85482259
Al      27.85281754      23.80803672      29.88667099
Al      29.90900800      25.84398686      29.89110220
Al      31.88824038      27.84186405      29.84949528
Al      33.93861446      29.87441303      29.90309828
Al      35.97217948      31.91202532      29.88771887
Al      37.97180635      33.91373678      29.88717695
Al      40.01009370      35.93919252      29.87427888
Al      42.06159020      38.00270176      29.91408725
Al      44.07393107      39.99804877      29.92190782
Al      29.86220022      23.79973741      31.90446077
Al      31.90071891      25.84893279      31.90580230
Al      33.92409003      27.84399991      31.89383918
Al      35.95875275      29.88085120      31.90153010
Al      37.96080953      31.90897747      31.90935080
Al      39.99930269      33.93203764      31.90166546
Al      42.02933462      35.93715785      31.92485622
Al      44.05118895      37.97868840      31.93545390
Al      46.06288195      40.00746332      31.91078129
Al      31.90958910      23.81015142      33.95575795
Al      33.96001257      25.82805137      33.91671356
Al      35.95854424      27.86621567      33.92882661
Al      38.00720735      29.89997432      33.93162245
Al      40.02118421      31.92387869      33.92055321
Al      42.05622918      33.91994976      33.93273829
Al      44.05536513      35.97066581      33.91484514
Al      46.07571795      37.99166124      33.94355131
Al      33.94122089      23.80390143      35.96816827
Al      35.96071417      25.85071619      35.95020920
Al      37.99488861      27.85377038      35.96988580
Al      40.01588750      29.90465935      35.95036142
Al      42.04039240      31.90603064      35.96716838
Al      44.06755763      33.91825673      35.97013544
Al      46.09051054      35.96216527      35.95494621
Al      35.98648616      23.80172469      37.98482741
Al      37.94473597      25.85660332      37.98859985
Al      40.02602252      27.85563541      37.99072384
Al      42.04951564      29.87555116      37.98438682
Al      44.02386336      31.90337299      37.97337584
Al      46.06800866      33.94283018      37.95588731
Al      37.98540904      23.80068708      39.97999965
Al      40.01268052      25.83458390      40.01699735
Al      42.04176194      27.87840314      40.01607684
Al      44.09285388      29.90273887      40.02347353
Al      46.09795603      31.89797744      40.01277853
Al      40.00347226      23.80872499      42.03568583
Al      42.02699443      25.84384666      42.03758910
Al      44.05040238      27.85983290      42.03063765
Al      42.04952068      23.82310958      44.05367306
Al      44.04837983      25.82591171      44.03416053
Al      21.81897491      25.83199580      25.82830417
Al      23.78888362      27.84553791      25.85119273
Al      25.82979144      29.89894238      25.87076386
Al      27.83478341      31.91912033      25.81963811
Al      29.87292420      33.94792194      25.82866156
Al      31.91216425      35.97931144      25.85280893
Al      33.92894052      37.99091383      25.84404869
Al      35.93857565      39.99602751      25.83762041
Al      37.99132965      42.05364454      25.84594019
Al      39.99273625      44.07972270      25.80476827
Al      42.02466711      46.09128277      25.84417641
Al      23.81472703      25.83378708      27.86216346
Al      25.82149581      27.86427467      27.84431872
Al      27.85305487      29.86765100      27.82755530
Al      29.87804284      31.91207191      27.87867089
Al      31.92669390      33.91818697      27.86841207
Al      33.91987611      35.92816533      27.84715916
Al      35.95832325      37.98911492      27.85642493
Al      37.96964313      40.00453762      27.84413477
Al      40.00620881      42.02729874      27.85915651
Al      42.02510403      44.05214187      27.87606179
Al      25.83837927      25.84562379      29.89683422
Al      27.85444424      27.85268445      29.89222479
Al      29.88069798      29.88104574      29.86974762
Al      31.91145768      31.90807186      29.87631031
Al      33.90857288      33.93463928      29.89389508
Al      35.94438129      35.94006537      29.87091300
Al      38.00214722      38.01503414      29.88400314
Al      40.01825438      40.01517633      29.89861181
Al      42.03516849      42.02022146      29.87849950
Al      27.86252630      25.81512867      31.89699960
Al      29.88823457      27.85958347      31.90554583
Al      31.90157602      29.89999077      31.92242815
Al      33.93273968      31.89330831      31.89667452
Al      35.94342296      33.93001845      31.89582853
Al      37.98273199      35.97375492      31.89887634
Al      39.98863989      37.98392784      31.89948955
Al      42.05281171      40.01169365      31.93483749
Al      44.05414318      42.03837130      31.92238825
Al      29.86920383      25.85786093      33.93928292
Al      31.89058632      27.85873503      33.90557176
Al      33.94602116      29.89222901      33.94321151
Al      35.97003366      31.88412602      33.91201547
Al      37.97305525      33.95961664      33.90913467
Al      40.00422027      35.93308278      33.93324100
Al      42.02965501      37.98628061      33.94587543
Al      44.03908018      40.00622455      33.95553103
Al      31.89478469      25.83139639      35.98008052
Al      33.92612385      27.86810385      35.93390410
Al      35.96128691      29.89539544      35.96617617
Al      37.98621618      31.89200159      35.98001921
Al      40.00031084      33.94526050      35.94853572
Al      42.02852863      35.92944428      35.95911455
Al      44.08061879      38.00546181      35.95679345
Al      33.94104338      25.84325735      37.96113222
Al      35.95067228      27.86359063      37.98191500
Al      37.99305872      29.89874039      37.99283407
Al      39.97367426      31.93117449      37.97325881
Al      42.02655378      33.94802495      37.99707711
Al      44.04327796      35.97670028      37.96866099
Al      35.94815279      25.81983705      40.00004018
Al      37.95984099      27.87352009      39.99697001
Al      40.00800630      29.87250984      40.01783838
Al      42.03066422      31.90692237      40.00889531
Al      44.06521482      33.94304372      40.02622389
Al      37.98332561      25.80169272      42.03279679
Al      40.01320636      27.88510934      42.03884817
Al      42.02844652      29.87195908      42.05778410
Al      44.06181168      31.90767565      42.02700490
Al      39.99648756      25.83930579      44.07283664
Al      42.02021899      27.85964207      44.06035059
Al      42.04181669      25.83857846      46.09055695
Al      21.78702734      27.83862393      27.84233176
Al      23.77617962      29.85824189      27.84172759
Al      25.83857949      31.88850799      27.88088558
Al      27.86484027      33.93042649      27.84830050
Al      29.85420680      35.96440915      27.88070279
Al      31.91262124      37.95635322      27.83456958
Al      33.92576568      40.01322362      27.86476863
Al      35.98449651      42.02268256      27.87336780
Al      37.99975310      44.06986173      27.85405269
Al      40.00905309      46.08478832      27.86086460
Al      23.82167395      27.84460192      29.85403022
Al      25.79795165      29.87798118      29.88865518
Al      27.84610152      31.89184394      29.86327363
Al      29.88698418      33.93338798      29.91250628
Al      31.92201570      35.93570133      29.89043448
Al      33.93841669      37.98326201      29.87476599
Al      35.96364444      40.04530307      29.87109741
Al      37.98670788      42.04174664      29.88476361
Al      40.00859996      44.05247872      29.86870331
Al      25.83097830      27.84892803      31.88693552
Al      27.86597012      29.87488427      31.91235093
Al      29.89986357      31.88286901      31.89236850
Al      31.89795402      33.94167458      31.86831385
Al      33.93023681      35.95990274      31.89570892
Al      35.94284420      37.97662806      31.89824525
Al      37.95510781      39.99660949      31.93060252
Al      40.01674692      42.05256614      31.90338892
Al      42.05164340      44.05761727      31.92222215
Al      27.88372721      27.84214316      33.94428777
Al      29.88864854      29.87565831      33.90871448
Al      31.87718288      31.90709406      33.94399038
Al      33.93324742      33.93059598      33.93376527
Al      35.93803656      35.96276975      33.93652560
Al      37.97380257      38.00304267      33.95534905
Al      40.03004189      39.99212572      33.94849369
Al      42.01846345      42.03853837      33.92314343
Al      29.85923132      27.87084737      35.96073482
Al      31.91060343      29.84748254      35.97609447
Al      33.93141798      31.90244503      35.96765719
Al      35.95987091      33.93088218      35.95391667
Al      37.99978470      35.91096735      35.97174573
Al      40.01847901      37.99632532      35.96724389
Al      42.04946031      39.99936650      35.94827858
Al      31.90191171      27.84923943      37.94853730
Al      33.92168427      29.84916224      38.00437377
Al      35.96691364      31.91048088      37.97711859
Al      37.98730031      33.93167485      37.95726441
Al      39.99084517      35.97429046      37.98921952
Al      42.02368134      37.95745872      37.98098101
Al      33.94205071      27.86085225      40.02708989
Al      35.96738511      29.89764271      40.01626421
Al      37.99424922      31.92067962      40.02323103
Al      39.98421429      33.93177852      40.01933627
Al      42.03910674      35.94216866      40.01003158
Al      35.95244493      27.87592788      42.03177150
Al      37.99027057      29.86465463      42.02452577
Al      40.02304501      31.89134323      42.04358066
Al      42.02279915      33.90206030      42.04804381
Al      37.99730846      27.82901151      44.06522608
Al      40.00384950      29.88573064      44.05662989
Al      42.04761270      31.92973081      44.07357416
Al      39.99413942      27.83808481      46.09703610
Al      21.80375552      29.90605046      29.86581314
Al      23.81522332      31.92961613      29.87669312
Al      25.81686014      33.92527938      29.85125966
Al      27.85843280      35.93725716      29.88914509
Al      29.87077988      37.95883764      29.89415665
Al      31.90318503      40.01330450      29.88927216
Al      33.92589446      42.04297812      29.86728712
Al      35.94221757      44.04474146      29.90350930
Al      37.97497737      46.10216361      29.88791397
Al      23.80555068      29.91747287      31.91574770
Al      25.83525911      31.92923994      31.91947134
Al      27.86142701      33.93139724      31.91094292
Al      29.86682795      35.94940563      31.91521818
Al      31.89709452      37.98770758      31.90852249
Al      33.94004512      40.01104136      31.90924603
Al      35.94784277      42.00134906      31.91364969
Al      37.98902392      44.05006675      31.92561937
Al      40.01234881      46.10079391      31.93894113
Al      25.85514466      29.91515046      33.94993195
Al      27.85786898      31.89224139      33.92039360
Al      29.87047280      33.91543639      33.92678295
Al      31.92211879      35.92665037      33.95882590
Al      33.94199983      38.00005155      33.93099576
Al      35.95808393      39.98481502      33.96068232
Al      37.98698627      42.02264185      33.91924858
Al      40.00348292      44.06391190      33.94907360
Al      27.84788698      29.90754544      35.94454606
Al      29.88554350      31.88529161      35.95153408
Al      31.91200908      33.95127596      35.98019541
Al      33.92756009      35.93467220      35.99650420
Al      35.95377702      37.97406295      35.95487032
Al      37.96086161      39.98948472      35.95923599
Al      40.01149595      42.05158847      35.94180373
Al      29.89201619      29.90148621      37.98449518
Al      31.90840604      31.90498799      38.00878273
Al      33.93836700      33.93146054      37.98183667
Al      35.96309583      35.92814901      37.99929053
Al      37.99039587      37.98619663      37.96425117
Al      40.01734919      39.98799728      37.99664069
Al      31.88452360      29.90103197      40.01577434
Al      33.93930414      31.89540815      40.03433999
Al      35.93481177      33.92624765      40.00322321
Al      37.98496791      35.96472911      39.98746257
Al      40.00974013      38.00460879      40.00865152
Al      33.94143084      29.86897820      42.02020903
Al      35.96823784      31.89614544      42.02128082
Al      37.99951618      33.93736083      42.00984105
Al      40.02050655      35.95400939      42.02745097
Al      35.95342508      29.89079602      44.06798365
Al      37.97627727      31.89016515      44.05526068
Al      40.00955225      33.95111583      44.02982444
Al      37.99051607      29.89111523      46.07942362
Al      40.00848087      31.90816250      46.04952466
Al      21.77277895      31.91915277      31.89106737
Al      23.82209994      33.93531210      31.88937077
Al      25.80829493      35.97457269      31.90170843
Al      27.88285590      37.96899154      31.93159368
Al      29.86576812      39.99177711      31.88367965
Al      31.90921994      42.03392537      31.89915610
Al      33.91576814      44.06001155      31.91716700
Al      35.94662304      46.08941126      31.88433330
Al      23.81941621      31.91104803      33.92932673
Al      25.82032437      33.91742947      33.95194921
Al      27.86194465      35.96750422      33.93251422
Al      29.88271925      37.98880520      33.92951691
Al      31.91560297      40.02792926      33.91853482
Al      33.92360039      42.04184175      33.91861959
Al      35.95945045      44.06955518      33.91027803
Al      37.97228862      46.06907739      33.94140803
Al      25.80813920      31.90386517      35.96783718
Al      27.86087076      33.92415875      35.94862445
Al      29.88833279      35.98327831      35.98981971
Al      31.89889601      37.97003195      35.95659579
Al      33.93367005      39.98757495      35.96363737
Al      35.96069552      42.04280734      35.95552386
Al      37.99172998      44.04277003      35.97307694
Al      27.84960692      31.92152074      37.98122077
Al      29.88473127      33.95599979      37.96982858
Al      31.90716353      35.97687548      37.96688210
Al      33.95732608      37.98346470      37.97206793
Al      35.97967812      40.03048890      37.99363622
Al      37.98759148      42.01184600      37.98893000
Al      29.89979098      31.89058106      39.98298615
Al      31.89368895      33.94636185      40.00259844
Al      33.92299836      35.95651911      40.02496299
Al      35.97385134      37.98739099      39.99996445
Al      37.96637202      40.00567176      40.00479031
Al      31.89820135      31.91226124      42.01790025
Al      33.92566118      33.91593507      42.01859244
Al      35.97494963      35.94266564      42.06230012
Al      37.97422528      37.98158948      42.02971521
Al      33.91798229      31.91245893      44.08782236
Al      35.95713104      33.93039081      44.07909654
Al      37.99824666      35.97322485      44.04122401
Al      35.97137137      31.91562810      46.08615624
Al      37.99220547      33.91478758      46.07196890
Al      21.80185107      33.92665953      33.93408265
Al      23.81024279      35.94774620      33.94003327
Al      25.83884498      37.97486957      33.96289622
Al      27.84337925      40.02093284      33.90572585
Al      29.87964545      42.02929017      33.94267924
Al      31.92232159      44.04623713      33.94730306
Al      33.93846090      46.08882384      33.91555838
Al      35.96339477      48.07892124      33.93764801
Al      23.82374705      33.92412553      35.96398829
Al      25.83864589      35.95356868      35.95313411
Al      27.87782777      37.97160832      35.96005547
Al      29.87892782      39.99076726      35.96573534
Al      31.91001320      42.02694276      35.97355817
Al      33.92883714      44.06949408      35.94025055
Al      35.95379024      46.08826559      35.95306428
Al      25.83792448      33.93391180      37.96065045
Al      27.84711976      35.96623583      37.97076735
Al      29.87522012      37.97586027      37.99653342
Al      31.91260480      39.98703893      37.96665169
Al      33.95754335      42.03250042      37.96972553
Al      35.94658737      44.06017102      37.95385801
Al      27.84654926      33.95389232      40.01534136
Al      29.87107013      35.96202150      39.98613831
Al      31.89302863      37.97799711      40.01172531
Al      33.91984897      39.98146015      40.01666540
Al      35.97034059      42.02874180      40.01127876
Al      29.88187893      33.94320909      42.05235641
Al      31.91944504      35.97924187      42.06403392
Al      33.92218551      37.97102627      42.02668408
Al      35.94285611      40.03525034      42.04727776
Al      31.92658103      33.92875970      44.07087114
Al      33.94802125      35.93479857      44.04977461
Al      35.96213758      37.96902705      44.06293311
Al      33.89666290      33.91618676      46.10460118
Al      35.93686815      35.94505923      46.07157703
Al      35.96654598      33.94466761      48.10756112
Al      21.78497198      35.97220812      35.94768881
Al      23.82760083      37.98045460      35.94458480
Al      25.84279354      40.01051998      35.95285393
Al      27.85618412      42.04300052      35.92506473
Al      29.88301408      44.05487059      35.95815477
Al      31.92587615      46.07968582      35.96481674
Al      33.92084393      48.12556903      35.97145512
Al      23.78299833      35.91514915      37.98255829
Al      25.84304183      37.98232893      37.98681687
Al      27.85682947      39.99619933      37.98834481
Al      29.87603671      42.02175282      37.96697676
Al      31.90639130      44.06315540      37.98252427
Al      33.93901999      46.08394326      38.00056720
Al      25.82777354      35.97063724      40.02053073
Al      27.85064270      37.99709668      39.99943179
Al      29.89607032      40.02396412      40.02194923
Al      31.87634159      42.03223290      40.01480883
Al      33.94864909      44.07043467      40.02574656
Al      27.86490348      35.95807266      42.04697816
Al      29.88014769      37.98060120      42.03109482
Al      31.92273909      40.00015601      42.03103596
Al      33.93048800      42.01106310      42.04026041
Al      29.88286558      35.92471058      44.04817212
Al      31.90518245      37.98176360      44.04679926
Al      33.93372620      40.01301776      44.06523221
Al      31.92044411      35.96744333      46.04019278
Al      33.94038581      37.99076972      46.10170677
Al      33.94964951      35.98132486      48.11058373
Al      21.75355706      37.97151155      37.98913852
Al      23.79788766      40.01456466      37.99573047
Al      25.84514367      42.06867773      38.00374194
Al      27.87105315      44.06381600      37.97784851
Al      29.88671321      46.06877515      37.99001384
Al      23.80699048      37.96628791      39.98725254
Al      25.82912949      40.03215788      39.99600832
Al      27.86414458      42.02527106      40.04400242
Al      29.87311172      44.06447078      40.02063769
Al      31.91622146      46.06447785      40.01630269
Al      25.83297535      37.97895112      42.02507561
Al      27.85180880      40.01388099      42.01716414
Al      29.88279851      42.04998403      42.04487839
Al      31.87824611      44.04662090      42.02549130
Al      27.85493793      37.97436707      44.04926271
Al      29.88592957      40.01612336      44.07048456
Al      31.91711048      42.03699880      44.04338081
Al      29.88621591      37.97255693      46.06920721
Al      31.90001702      40.00764985      46.08327334
Al      21.76766641      40.00666149      39.99293410
Al      23.82819315      42.04145485      40.01509634
Al      25.83239159      44.06909669      39.98707860
Al      27.85254692      46.07136281      40.01004171
Al      23.81447507      39.99889265      42.04381982
Al      25.84897974      42.04559527      42.02789397
Al      27.83900640      44.05368318      42.02072325
Al      25.83096250      40.00591822      44.04857007
Al      27.84567060      42.00911304      44.05084298
Al      27.87266335      39.99163488      46.07528460
Al      21.78075592      42.04610827      42.03914482
Al      23.81380362      44.03860496      42.02806260
Al      25.83237292      46.09051721      42.03930908
Al      23.80931839      42.03188124      44.04213765
Al      25.83304910      44.05776070      44.06970894
Al      25.81980648      42.04743479      46.09526456
Al      21.78705294      44.05077323      44.04002634
