500
Lattice="26.1298797525876 0.0 0.0 0.0 19.567124681486675 0.0 0.0 0.0 25.49330254455619" Properties=species:S:1:pos:R:3 id=sample_001295 pbc="F F F"
Au      -0.01021734      -0.00816813       0.02152196
Au       0.00118936       1.95883180       2.55661372
Au       2.62105489       0.00702535       2.53755836
Au       2.59439508       1.93838968       0.00880690
Au      -0.00689111       0.00830901       5.10274177
Au      -0.01775588       1.94784725       7.64879313
Au       2.61645375       0.00903639       7.65589270
Au       2.60412652       1.95249660       5.08302324
Au       0.00605669       0.00353974      10.20147974
Au       0.00441181       1.95725566      12.74961325
Au       2.61162611      -0.00241791      12.75658983
Au       2.60991850       1.95874351      10.19934321
Au      -0.00816448      -0.02745520      15.28628477
Au       0.00807306       1.94867522      17.85234809
Au       2.61209794      -0.01911345      17.83586168
Au       2.61587000       1.97102113      15.30492101
Au      -0.01716098       0.01657654      20.39393618
Au       0.00577219       1.94993884      22.95380042
Au       2.61290819      -0.01508228      22.94602321
Au       2.59503750       1.97035522      20.39609231
Au       0.00806645       3.91763945      -0.00412913
Au      -0.01405647       5.87076532       2.54891845
Au       2.61462351       3.91199860       2.54160534
Au       2.59339642       5.86255893       0.00776077
Au      -0.00607447       3.90908472       5.09408934
Au       0.00075124       5.87060836       7.65899740
Au       2.63022730       3.91111269       7.64011187
Au       2.61476489       5.87916058       5.11154037
Au      -0.00205227       3.90279432      10.20236884
Au       0.00266177       5.86492840      12.72929467
Au       2.62517552       3.91662490      12.74791000
Au       2.60337362       5.86954454      10.20603860
Au       0.00493001       3.91364631      15.29308392
Au       0.00509025       5.86352184      17.86665747
Au       2.60208204       3.90723359      17.85666686
Au       2.60266099       5.87562784      15.29546564
Au       0.00925054       3.91886502      20.40444967
Au      -0.00808534       5.87070120      22.94263837
Au       2.61332017       3.91251137      22.95280392
Au       2.60691751       5.86660274      20.38959973
Au      -0.00244693       7.81627304      -0.00321341
Au      -0.00521937       9.76841227       2.54329110
Au       2.61529867       7.81900690       2.55648108
Au       2.61304767       9.76125642      -0.00472602
Au       0.00707095       7.81350712       5.10600001
Au      -0.02377434       9.76762162       7.65951237
Au       2.62058637       7.83930373       7.65332261
Au       2.60235914       9.80513912       5.09357719
Au       0.00177265       7.83329288      10.20811585
Au       0.01699285       9.78774462      12.73220688
Au       2.60763525       7.80879884      12.74689913
Au       2.60821010       9.77198225      10.21257351
Au       0.01346658       7.79915719      15.30558070
Au       0.00480297       9.77714873      17.85456760
Au       2.62008618       7.81469122      17.85347801
Au       2.61372821       9.77503267      15.30691874
Au       0.00735281       7.82129736      20.39074221
Au      -0.00581522       9.77722527      22.93693921
Au       2.61368774       7.83868186      22.94238056
Au       2.62799858       9.77054288      20.38956549
Au       0.00412802      11.73432018       0.00220257
Au      -0.01930885      13.68626956       2.54293029
Au       2.62181909      11.73664438       2.56395609
Au       2.58149242      13.69718396       0.00260924
Au       0.01057964      11.76732428       5.10293472
Au      -0.00524563      13.68567581       7.65798218
Au       2.61297971      11.73875738       7.63079045
Au       2.59902613      13.68563844       5.07728820
Au      -0.00014550      11.74784823      10.21284592
Au       0.00097949      13.70139664      12.74502133
Au       2.60986296      11.74972095      12.75443682
Au       2.60606168      13.71407066      10.20815907
Au      -0.00058945      11.74435701      15.29136655
Au      -0.01702400      13.70441901      17.84669943
Au       2.64374705      11.74752921      17.84775243
Au       2.60511296      13.69089961      15.31005726
Au      -0.00233929      11.73703946      20.39730622
Au      -0.00633201      13.69272954      22.94080240
Au       2.60375915      11.74459621      22.94862720
Au       2.62047882      13.69692638      20.37398817
Au       0.01858675      15.64941147      -0.01505224
Au       0.00007406      17.60360632       2.53604485
Au       2.62326570      15.65357692       2.55340212
Au       2.61010615      17.61635697      -0.00145160
Au       0.00336082      15.66022164       5.10093606
Au      -0.00207146      17.60717615       7.63319199
Au       2.62884470      15.64825948       7.64279092
Au       2.61654811      17.61012598       5.09667253
Au      -0.00817920      15.66468136      10.19427551
Au       0.01098403      17.60685374      12.76220418
Au       2.62202323      15.66059786      12.75120796
Au       2.61754388      17.62634004      10.20896158
Au      -0.00478655      15.64764540      15.29936566
Au      -0.00576706      17.60857433      17.84917986
Au       2.61641891      15.66535379      17.83817842
Au       2.60958534      17.60551468      15.29954724
Au       0.00097290      15.65813010      20.40628664
Au       0.01435126      17.60695569      22.94846849
Au       2.60798295      15.65881320      22.94112051
Au       2.62640585      17.62269872      20.39777613
Au       5.21085410       0.00184476       0.00550060
Au       5.22432734       1.95076253       2.55515524
Au       7.83378723      -0.00427458       2.55564986
Au       7.84515101       1.97406468       0.00358222
Au       5.22145107      -0.01177427       5.10461213
Au       5.22316611       1.96199816       7.65890882
Au       7.84092942       0.00363644       7.65164272
Au       7.82813159       1.95111219       5.11361582
Au       5.23215136      -0.00387675      10.19415820
Au       5.22410288       1.94872524      12.74214049
Au       7.82286906      -0.01345797      12.74542059
Au       7.84080594       1.94962674      10.19599076
Au       5.21821787      -0.02719764      15.28951815
Au       5.23297379       1.95900799      17.82644484
Au       7.82037116      -0.00085927      17.85218916
Au       7.83457563       1.96953543      15.29761851
Au       5.22189977      -0.00896408      20.39071472
Au       5.21552251       1.95048095      22.94190717
Au       7.82053067      -0.00670147      22.93189415
Au       7.84586513       1.93865655      20.38186809
Au       5.22405683       3.91707748       0.01959035
Au       5.23379977       5.86161578       2.55956897
Au       7.82610055       3.91203449       2.56679452
Au       7.84490635       5.86425336       0.00277782
Au       5.20035681       3.92250144       5.08770360
Au       5.22731583       5.88293280       7.64995648
Au       7.83817955       3.93247267       7.65273699
Au       7.84561773       5.87615932       5.10408862
Au       5.22678067       3.91456532      10.17606708
Au       5.22025500       5.86402638      12.74891652
Au       7.83045191       3.88866012      12.74167090
Au       7.83703346       5.86538070      10.18258323
Au       5.24238195       3.89861340      15.28379937
Au       5.21800862       5.88368865      17.86342195
Au       7.83631590       3.90858946      17.85140664
Au       7.84501033       5.86045800      15.29912850
Au       5.22630969       3.93512498      20.40781441
Au       5.23051905       5.86333946      22.95074033
Au       7.85274930       3.91242330      22.94218483
Au       7.84451321       5.88345161      20.40190450
Au       5.23907405       7.83945103       0.00044651
Au       5.23240462       9.77767624       2.56846063
Au       7.84075479       7.81563278       2.54975125
Au       7.81733387       9.78891769      -0.00953083
Au       5.23477116       7.82823786       5.10002611
Au       5.22786281       9.77815370       7.64659534
Au       7.84180361       7.82909106       7.65721418
Au       7.83408155       9.78291336       5.08898390
Au       5.24355064       7.82118250      10.20520231
Au       5.22484414       9.78466439      12.74926525
Au       7.82149298       7.82483917      12.73645800
Au       7.83877463       9.78096350      10.20296792
Au       5.23379241       7.82427041      15.30724666
Au       5.21411459       9.77503955      17.85824447
Au       7.84086651       7.82262877      17.85737485
Au       7.83685197       9.78695421      15.29663820
Au       5.21463833       7.83839745      20.40575887
Au       5.24132616       9.78342488      22.94619120
Au       7.82399566       7.83153532      22.94896433
Au       7.83489388       9.79845049      20.39590814
Au       5.23972257      11.75164513      -0.01778289
Au       5.23146661      13.71837265       2.54435337
Au       7.82779927      11.75212352       2.56504476
Au       7.83811448      13.69217412       0.00146352
Au       5.22731924      11.74315023       5.10918295
Au       5.23398998      13.69919853       7.64923022
Au       7.83879435      11.72624474       7.64513191
Au       7.83648165      13.70403720       5.09525827
Au       5.22240175      11.72943489      10.19356580
Au       5.23429767      13.69734178      12.76265632
Au       7.83495465      11.72842401      12.75693584
Au       7.82948269      13.69865253      10.18712233
Au       5.21766890      11.73303985      15.28989946
Au       5.22809580      13.70281206      17.85188059
Au       7.82944334      11.73597943      17.86562993
Au       7.83393463      13.69105665      15.30860499
Au       5.22425487      11.73372782      20.37845934
Au       5.22699524      13.70007819      22.94993755
Au       7.84722091      11.74703470      22.93928715
Au       7.84108088      13.70084327      20.38236176
Au       5.22978975      15.65085693       0.00428346
Au       5.22009637      17.60523546       2.54092063
Au       7.85740554      15.66986348       2.54720005
Au       7.83849549      17.61281531      -0.00748490
Au       5.23179270      15.66461093       5.11089467
Au       5.24323023      17.62178071       7.66328274
Au       7.84822333      15.64555433       7.64062463
Au       7.84158519      17.60176630       5.08846999
Au       5.22878807      15.63953240      10.18726129
Au       5.21629599      17.62245822      12.74610526
Au       7.83645069      15.65369749      12.74762103
Au       7.85957724      17.60490824      10.20183763
Au       5.22315710      15.65493389      15.29369654
Au       5.24094334      17.61809592      17.83773875
Au       7.83388998      15.64433361      17.82370429
Au       7.83444958      17.60599104      15.29187706
Au       5.23448056      15.65098633      20.40175047
Au       5.21513088      17.61858710      22.94504141
Au       7.84750807      15.64867018      22.94284565
Au       7.83530599      17.61145281      20.38942389
Au      10.45777875      -0.01319009       0.02250457
Au      10.45936997       1.98299967       2.55712770
Au      13.06252860       0.00788238       2.55269187
Au      13.06111021       1.96212620       0.00206992
Au      10.45715142      -0.01341289       5.11824535
Au      10.44953410       1.95130761       7.63789649
Au      13.05546421      -0.00097211       7.65387040
Au      13.06965920       1.96578035       5.09958607
Au      10.43930976       0.00683386      10.18021851
Au      10.44265082       1.96741378      12.73946523
Au      13.06087924      -0.00729135      12.74539485
Au      13.06562982       1.95378670      10.20961289
Au      10.44780341       0.00031799      15.28554436
Au      10.45681699       1.94102455      17.85106720
Au      13.07447027      -0.00687328      17.85172164
Au      13.05712144       1.95103166      15.29879000
Au      10.45576915      -0.00677731      20.41410426
Au      10.44987815       1.94773850      22.93083052
Au      13.04843216      -0.00077707      22.95186287
Au      13.07245310       1.96558824      20.37880887
Au      10.44563459       3.91936609      -0.00121984
Au      10.43217225       5.87060689       2.54582997
Au      13.06710990       3.91614909       2.54292909
Au      13.07978363       5.87174043       0.01106561
Au      10.44885280       3.90702379       5.11005725
Au      10.46916968       5.88578664       7.64130526
Au      13.07949086       3.90414987       7.64096744
Au      13.06281203       5.87021225       5.10267333
Au      10.45643545       3.92043567      10.20077290
Au      10.44615861       5.85745321      12.74580772
Au      13.05072686       3.91780012      12.75178076
Au      13.06038524       5.87416175      10.19269711
Au      10.45822756       3.91289310      15.28824496
Au      10.44800154       5.87472170      17.84549835
Au      13.06331134       3.91264550      17.84021769
Au      13.07578156       5.88428442      15.29176242
Au      10.44764093       3.90589736      20.38659563
Au      10.45344084       5.86285505      22.96302298
Au      13.04962321       3.92091744      22.95471272
Au      13.07827177       5.88601565      20.38957784
Au      10.44233885       7.81268352      -0.01687913
Au      10.44605109       9.79276445       2.54118683
Au      13.06447251       7.83913344       2.54706968
Au      13.05323136       9.78076245       0.00790340
Au      10.47411599       7.82652032       5.09200645
Au      10.44139277       9.78884466       7.64834854
Au      13.07550510       7.84546921       7.65621214
Au      13.05154705       9.76899100       5.09816614
Au      10.44022795       7.82722825      10.19306176
Au      10.44642440       9.77624459      12.74849618
Au      13.06143604       7.84272762      12.74086238
Au      13.05224975       9.79066438      10.21170162
Au      10.47824969       7.82542745      15.30865015
Au      10.44266085       9.79463560      17.84647114
Au      13.04887715       7.82805446      17.85036309
Au      13.05775807       9.77599899      15.27674925
Au      10.44033403       7.82188548      20.39542637
Au      10.45816866       9.77158313      22.94654356
Au      13.05818425       7.82654114      22.92758770
Au      13.05382927       9.80198280      20.37929020
Au      10.46819948      11.75479725       0.01521303
Au      10.43470238      13.68504983       2.55518158
Au      13.07216545      11.73894199       2.56194042
Au      13.06148738      13.69986781      -0.00472656
Au      10.46137006      11.72818538       5.10897449
Au      10.45570325      13.68230389       7.63279348
Au      13.06794232      11.74183208       7.65409118
Au      13.05724937      13.68766966       5.10105639
Au      10.45899728      11.73828275      10.19597399
Au      10.44620481      13.68780846      12.76537853
Au      13.06655535      11.72326436      12.74048608
Au      13.05667440      13.68883382      10.21040324
Au      10.45797070      11.73302065      15.31083215
Au      10.45528050      13.70112097      17.86131290
Au      13.04503390      11.72490798      17.84436629
Au      13.06202259      13.69026894      15.29849025
Au      10.45950553      11.73024240      20.39536883
Au      10.44723844      13.69111797      22.96478333
Au      13.06020411      11.73646731      22.93123492
Au      13.07654473      13.69100150      20.39872297
Au      10.44491142      15.65960887       0.00342172
Au      10.45170359      17.61391033       2.56043267
Au      13.06704313      15.64379918       2.56042512
Au      13.07376170      17.60845046      -0.00955067
Au      10.45060790      15.66486239       5.10771191
Au      10.44209212      17.61297853       7.65789706
Au      13.07348949      15.66453028       7.65026475
Au      13.06443916      17.60174380       5.08984281
Au      10.47124841      15.66900056      10.19790839
Au      10.44917138      17.60862820      12.74398400
Au      13.07585052      15.63736727      12.72509561
Au      13.05044362      17.61493322      10.20882079
Au      10.45194015      15.64929921      15.28970843
Au      10.45249359      17.63935520      17.83795372
Au      13.06593646      15.63594705      17.85192144
Au      13.04377888      17.60998356      15.30278212
Au      10.44878209      15.65333653      20.39384638
Au      10.45523579      17.60612487      22.92811715
Au      13.05274537      15.64234821      22.92950239
Au      13.05858388      17.61072930      20.39493313
Au      15.67225796      -0.00067648      -0.00123135
Au      15.67383364       1.94074735       2.55242102
Au      18.28709490      -0.00049040       2.56159500
Au      18.29985104       1.96337095      -0.00888064
Au      15.69042926      -0.00044791       5.09062699
Au      15.67028133       1.95676781       7.66189716
Au      18.28066544       0.00728168       7.62634744
Au      18.29747044       1.95981529       5.08585725
Au      15.68152959       0.00411005      10.19565090
Au      15.67854237       1.94490076      12.76160824
Au      18.29990235       0.01035041      12.74399831
Au      18.27491430       1.97905772      10.20245081
Au      15.67769690      -0.00833580      15.28301373
Au      15.68223810       1.95829107      17.82468661
Au      18.27375751       0.00544652      17.84478758
Au      18.29012294       1.96805360      15.29603362
Au      15.68092471       0.00005345      20.39810845
Au      15.67518524       1.96052716      22.96252099
Au      18.31295191      -0.00725014      22.94821929
Au      18.28489192       1.93861913      20.38832965
Au      15.68278904       3.91291969      -0.00190350
Au      15.67785323       5.88079498       2.53086629
Au      18.30392878       3.89758837       2.55791303
Au      18.28910293       5.87364070       0.00199511
Au      15.66584179       3.90263387       5.07264080
Au      15.67788323       5.87270075       7.64759941
Au      18.28807813       3.90968681       7.64950413
Au      18.28774049       5.85981645       5.10617887
Au      15.68532553       3.91239922      10.19628920
Au      15.66677551       5.87007288      12.74670530
Au      18.29807015       3.91227907      12.75802577
Au      18.27797584       5.85702338      10.20038797
Au      15.65859856       3.91416764      15.27598030
Au      15.69044729       5.87803532      17.83837110
Au      18.30119361       3.91522651      17.82614434
Au      18.27873768       5.86621751      15.30650427
Au      15.67401223       3.92432462      20.37550804
Au      15.65803178       5.86969352      22.95263088
Au      18.28528705       3.93161948      22.94055565
Au      18.29022755       5.86512447      20.40495179
Au      15.67510789       7.82722540       0.01913827
Au      15.68873023       9.78748744       2.52967221
Au      18.28094064       7.82854153       2.55959112
Au      18.29490035       9.77053377       0.00344406
Au      15.68332693       7.83066977       5.08125026
Au      15.67745288       9.77401826       7.63693644
Au      18.28918939       7.82526297       7.65843482
Au      18.29290083       9.77191637       5.07635303
Au      15.68057256       7.83021264      10.22373344
Au      15.68141659       9.78483889      12.73571927
Au      18.28302869       7.81994689      12.74319404
Au      18.28908627       9.77577994      10.19116441
Au      15.66810439       7.82567166      15.30025283
Au      15.67009858       9.78370346      17.84341129
Au      18.28703443       7.85001452      17.84223070
Au      18.26900778       9.77501581      15.28728049
Au      15.67961236       7.83893015      20.39588731
Au      15.68016349       9.78984498      22.95569396
Au      18.27736057       7.83397092      22.95328656
Au      18.28388752       9.77893300      20.39092726
Au      15.68133136      11.75025805       0.01008133
Au      15.66846922      13.69955626       2.53864457
Au      18.28561594      11.74963228       2.56661791
Au      18.28476016      13.70271751       0.00071743
Au      15.67537044      11.72854339       5.09160962
Au      15.70307162      13.69368888       7.63605121
Au      18.30606930      11.74483925       7.65765319
Au      18.32029625      13.69056197       5.09832462
Au      15.69306163      11.74850020      10.18620364
Au      15.67540099      13.67303448      12.74575637
Au      18.28211071      11.73169392      12.72778273
Au      18.28382958      13.71558494      10.19310571
Au      15.67061880      11.74456730      15.29338358
Au      15.68611747      13.70091592      17.84539184
Au      18.28417789      11.73563494      17.84208960
Au      18.30106638      13.67646129      15.30410556
Au      15.68975832      11.73694618      20.40443414
Au      15.68681405      13.70215621      22.95098731
Au      18.27554024      11.73601069      22.94954105
Au      18.29601679      13.69521114      20.38754515
Au      15.68865961      15.66126184       0.00920023
Au      15.65793530      17.61098806       2.55033973
Au      18.28489482      15.66255225       2.55257195
Au      18.26220765      17.60954981      -0.00516754
Au      15.68788663      15.63904521       5.09474400
Au      15.68214742      17.59471986       7.65469634
Au      18.28103975      15.66505581       7.66431906
Au      18.29657132      17.61142370       5.11061494
Au      15.69597923      15.65970186      10.21115403
Au      15.68274445      17.61757283      12.75057062
Au      18.28668719      15.65728429      12.73169658
Au      18.29122957      17.60063452      10.20220931
Au      15.66808248      15.65631510      15.29632655
Au      15.67538401      17.62326804      17.84527447
Au      18.30320405      15.66797742      17.85532947
Au      18.29668915      17.60466260      15.28503345
Au      15.68085046      15.64765995      20.39797304
Au      15.68925036      17.62209458      22.95166633
Au      18.28460303      15.64818875      22.94004358
Au      18.29667800      17.61769071      20.40623137
Au      20.90896733      -0.00076592       0.00897277
Au      20.90222397       1.97231626       2.54186666
Au      23.49960859       0.01206132       2.53647226
Au      23.51400666       1.97501259      -0.01612731
Au      20.90087418      -0.00998755       5.09938249
Au      20.89261139       1.96447941       7.65077939
Au      23.52687182      -0.01642632       7.65001601
Au      23.50837550       1.94711716       5.09543028
Au      20.90663467      -0.01376157      10.19018467
Au      20.92475350       1.95941531      12.75619969
Au      23.52160252       0.00761536      12.73746319
Au      23.52693614       1.95972991      10.19640728
Au      20.91308042      -0.00231229      15.29824156
Au      20.90331048       1.96071621      17.84232152
Au      23.51331667       0.00134056      17.83816526
Au      23.50675305       1.96942934      15.28319108
Au      20.89446061       0.01164448      20.40118725
Au      20.91452022       1.96206260      22.94715127
Au      23.50420717      -0.01184082      22.92326851
Au      23.51582351       1.94280173      20.39506035
Au      20.92079551       3.90990211       0.00080395
Au      20.89771205       5.86981409       2.54105976
Au      23.50294192       3.90622267       2.56208209
Au      23.51126941       5.88060913       0.00189756
Au      20.90415056       3.93355485       5.08574638
Au      20.90184052       5.87079216       7.62405539
Au      23.52535165       3.91122643       7.63435120
Au      23.50166378       5.85451186       5.09574669
Au      20.89775385       3.90144186      10.18068028
Au      20.92197299       5.87908070      12.74127953
Au      23.50633093       3.90712772      12.75104361
Au      23.52941939       5.86855239      10.19842248
Au      20.89834922       3.93510767      15.28054667
Au      20.91003964       5.85333581      17.85568116
Au      23.51553391       3.90496719      17.84425585
Au      23.51390770       5.86578101      15.28917752
Au      20.91564942       3.91528384      20.38468189
Au      20.90250914       5.86216841      22.94563588
Au      23.51696411       3.92270419      22.93853886
Au      23.51164561       5.86242938      20.39120320
Au      20.91235229       7.82854065       0.00165116
Au      20.90940923       9.75964381       2.55067179
Au      23.51960781       7.84896323       2.55618682
Au      23.52763932       9.79640879      -0.00179972
Au      20.88775458       7.82322209       5.08956397
Au      20.90948711       9.77490780       7.64307847
Au      23.53330058       7.81841422       7.64956428
Au      23.51110327       9.78136957       5.10007482
Au      20.89007998       7.83594606      10.20411618
Au      20.91143958       9.77953495      12.74663519
Au      23.52595512       7.82502855      12.75349429
Au      23.50696264       9.78138595      10.17571060
Au      20.89572411       7.83802984      15.29324863
Au      20.89346469       9.79892565      17.85620738
Au      23.52226402       7.85032207      17.85981466
Au      23.52809211       9.78816607      15.27750149
Au      20.89449120       7.83498436      20.39515004
Au      20.90650332       9.79189729      22.94533773
Au      23.51406641       7.83308857      22.92470644
Au      23.50128699       9.78078286      20.39371888
Au      20.89258660      11.75132929      -0.00945640
Au      20.90803945      13.69699649       2.55169068
Au      23.51666628      11.73575684       2.56572864
Au      23.51085126      13.71487650       0.02237893
Au      20.89257554      11.74999195       5.10769528
Au      20.91761890      13.69119157       7.64821186
Au      23.52464854      11.74078766       7.64471536
Au      23.49203481      13.69644655       5.09604665
Au      20.90217412      11.73122124      10.19461833
Au      20.90851508      13.70327760      12.74663903
Au      23.51347779      11.75170005      12.74310050
Au      23.52217377      13.68742837      10.19503690
Au      20.90353523      11.73849920      15.31168462
Au      20.89541161      13.70753951      17.83589190
Au      23.51038403      11.73886349      17.85376437
Au      23.50991429      13.69321226      15.28576520
Au      20.91627987      11.74214202      20.40604392
Au      20.90483342      13.68542852      22.94016452
Au      23.52914013      11.72869952      22.96175077
Au      23.54151480      13.69856340      20.38724124
Au      20.90423813      15.65960616       0.00840921
Au      20.91104709      17.60696644       2.55076702
Au      23.50844740      15.65791266       2.53277850
Au      23.52867460      17.61103941      -0.00837022
Au      20.90131044      15.65405289       5.11204234
Au      20.91140836      17.62085282       7.65944182
Au      23.52412279      15.65138731       7.63660610
Au      23.50630049      17.59983650       5.08760510
Au      20.89489357      15.65286970      10.20140311
Au      20.92806380      17.61002543      12.75773931
Au      23.52775554      15.67178806      12.74745249
Au      23.50899089      17.60919089      10.19619911
Au      20.90472407      15.65754226      15.28341103
Au      20.90897521      17.61328417      17.85792537
Au      23.52765166      15.65198748      17.85749103
Au      23.50305975      17.60525723      15.29502954
Au      20.88957938      15.65409645      20.40590096
Au      20.91021036      17.60707239      22.95651714
Au      23.53166192      15.65621619      22.94446038
Au      23.52430117      17.59844009      20.37880500
