108
Lattice="9.931515038061816 0.0 0.0 0.0 9.589380881520857 0.0 0.0 0.0 9.049749644440002" Properties=species:S:1:pos:R:3 id=sample_000718 pbc="F F F"
Fe      -0.01977483       0.00695348      -0.01556554
Fe       0.00892519       1.62489812       1.49458172
Fe       1.65034679      -0.02149297       1.48171422
Fe       1.67372294       1.63234601      -0.01267761
Fe      -0.00263748      -0.00928209       3.00027626
Fe      -0.01608567       1.56837907       4.55366193
Fe       1.65701509      -0.00044939       4.52431261
Fe       1.68970939       1.59243003       3.04639578
Fe       0.00004592       0.03602553       6.05237969
Fe      -0.00756672       1.61789568       7.56262191
Fe       1.64534001      -0.02466672       7.56266287
Fe       1.64200134       1.60961902       6.02986426
Fe       0.03125772       3.18784503       0.01342916
Fe      -0.00050598       4.79988925       1.50025682
Fe       1.64688558       3.22419182       1.48437470
Fe       1.69848403       4.79946948      -0.03166217
Fe      -0.03079596       3.22921093       3.01593822
Fe       0.03235714       4.78327622       4.54964576
Fe       1.63724352       3.21925434       4.52606050
Fe       1.63152020       4.80277697       3.00962503
Fe      -0.01618874       3.19771282       6.07807645
Fe       0.00515975       4.82849613       7.55300499
Fe       1.63810358       3.19334107       7.50594135
Fe       1.66973129       4.84891115       6.04397871
Fe      -0.03474876       6.36589450       0.01136502
Fe       0.01925788       8.01199517       1.50045343
Fe       1.66193580       6.39291659       1.52739352
Fe       1.65485008       7.97707822      -0.02577366
Fe      -0.02200393       6.42057300       3.01967826
Fe      -0.01359857       8.02729718       4.53014855
Fe       1.67155107       6.38701250       4.51773378
Fe       1.65405361       7.97859966       2.99632624
Fe      -0.01800036       6.40946917       6.05289783
Fe       0.01590063       8.03504215       7.55304768
Fe       1.61834329       6.39880187       7.52598640
Fe       1.64106637       7.98628652       6.04439647
Fe       3.30033687      -0.01211440      -0.03102002
Fe       3.32866094       1.60304450       1.48945136
Fe       4.95651512      -0.01073069       1.50384286
Fe       4.93544649       1.60108722       0.02872455
Fe       3.28356046      -0.02351882       2.98642499
Fe       3.32191165       1.59883098       4.51973179
Fe       4.94278384       0.01937138       4.54130038
Fe       4.94463391       1.58178033       3.01416521
Fe       3.31681436       0.03354902       6.05569545
Fe       3.35104793       1.57478704       7.54028141
Fe       4.99994736      -0.00384257       7.51265464
Fe       5.00359877       1.59496598       6.03499509
Fe       3.30146538       3.20979850       0.02026023
Fe       3.34319025       4.79439348       1.53178222
Fe       4.95018914       3.19869806       1.50970644
Fe       4.98710468       4.79943568      -0.00719998
Fe       3.32703932       3.19961199       3.00682843
Fe       3.31015356       4.81369316       4.53401617
Fe       4.94905673       3.20711355       4.50627371
Fe       4.95287955       4.74693625       3.03269301
Fe       3.29300747       3.18575544       6.02882506
Fe       3.34190737       4.80714924       7.52564176
Fe       4.93305311       3.20543650       7.56064979
Fe       4.96288327       4.79698347       6.03855004
Fe       3.35673498       6.38285643       0.02671709
Fe       3.32671843       7.98717540       1.51210606
Fe       4.98104648       6.36484696       1.50763315
Fe       4.96229164       7.98590019      -0.02459922
Fe       3.34106935       6.39102520       2.98871268
Fe       3.32924458       7.99289270       4.53700009
Fe       4.94495099       6.38351413       4.53975846
Fe       4.96199930       7.99096836       3.01638561
Fe       3.30059025       6.41499215       6.05452114
Fe       3.28610126       7.95858432       7.50364841
Fe       4.98601868       6.38748058       7.57161809
Fe       4.95625085       7.99709867       6.04229269
Fe       6.61751981       0.00988429      -0.02817153
Fe       6.64769264       1.60234742       1.52450687
Fe       8.29991739       0.01241763       1.51208735
Fe       8.28188361       1.62024805      -0.02473738
Fe       6.61437858      -0.00101899       3.00392345
Fe       6.64366363       1.59263436       4.50958168
Fe       8.28363857      -0.01182150       4.53656315
Fe       8.24429925       1.58688353       3.01552384
Fe       6.61565047      -0.04284736       6.03311180
Fe       6.57699849       1.55760805       7.51743771
Fe       8.26100994       0.01718600       7.52061529
Fe       8.24059801       1.61853229       6.01678482
Fe       6.58142366       3.19636743       0.02244594
Fe       6.61964689       4.78822395       1.50534100
Fe       8.27415669       3.19473281       1.48093794
Fe       8.26420241       4.79388266      -0.02124859
Fe       6.56999701       3.17090341       2.99936766
Fe       6.63458651       4.80483220       4.51217068
Fe       8.25354913       3.20061722       4.53999743
Fe       8.28632113       4.81432547       3.00978712
Fe       6.64948654       3.18266351       6.04895025
Fe       6.61787910       4.78577201       7.52940028
Fe       8.26207041       3.20224139       7.57846879
Fe       8.26536785       4.80758220       6.01784407
Fe       6.64983190       6.40810948      -0.01730018
Fe       6.63380735       7.98040392       1.51916569
Fe       8.30382066       6.37962649       1.50413837
Fe       8.29457787       8.01130663      -0.01744488
Fe       6.60384309       6.39249152       3.03206423
Fe       6.59794760       7.97589907       4.54000079
Fe       8.29528806       6.40747853       4.52817802
Fe       8.26386141       7.95258690       3.01666525
Fe       6.63469909       6.37971653       6.02379544
Fe       6.61051201       7.99834351       7.55363721
Fe       8.28064737       6.41157265       7.56093260
Fe       8.30142585       7.99723362       6.05272551
