500
Lattice="13.156831508108953 0.0 0.0 0.0 14.640294084675393 0.0 0.0 0.0 16.36067147470176" Properties=species:S:1:pos:R:3 id=sample_000681 pbc="F F F"
Fe      -0.01589401       0.01305964       0.02550465
Fe       0.00758667       1.44546949       1.62799644
Fe       1.31440282      -0.00720566       1.62850641
Fe       1.32303938       1.47120811      -0.00019579
Fe      -0.01159454       0.01224799       3.26693608
Fe       0.02202875       1.45592596       4.91161138
Fe       1.31859584       0.00219887       4.90948910
Fe       1.32480992       1.46291707       3.28483853
Fe       0.01439236       0.01265618       6.53477497
Fe       0.01175027       1.44234216       8.18967127
Fe       1.32265360      -0.01546934       8.17407568
Fe       1.31125716       1.47658113       6.54419697
Fe       0.00343704       0.01082715       9.83792768
Fe       0.00211907       1.48176877      11.43413298
Fe       1.30786116       0.01611781      11.44467718
Fe       1.31819949       1.45808709       9.82801444
Fe      -0.02892113      -0.02683805      13.09616712
Fe       0.01609320       1.45258554      14.71971366
Fe       1.30455998      -0.00567751      14.71552410
Fe       1.33056243       1.46910244      13.07035764
Fe      -0.00392384       2.93023703      -0.00667644
Fe       0.00106468       4.39623923       1.61733130
Fe       1.31240207       2.92046497       1.63133789
Fe       1.30829303       4.38465854       0.02103175
Fe      -0.00788763       2.90813422       3.26303268
Fe      -0.00399480       4.38567296       4.90915470
Fe       1.31045505       2.93178758       4.91070565
Fe       1.30775680       4.38244314       3.25714368
Fe       0.01107459       2.94098892       6.54294663
Fe      -0.00942716       4.40025695       8.19101357
Fe       1.31529609       2.93575768       8.17337178
Fe       1.31306244       4.39655861       6.53735601
Fe      -0.00323413       2.91750872       9.80974992
Fe      -0.00665123       4.38026959      11.43748841
Fe       1.30472533       2.92242125      11.46757896
Fe       1.32195801       4.38733219       9.82088195
Fe       0.00908006       2.93702014      13.08603851
Fe      -0.00552859       4.39355017      14.72367684
Fe       1.30144566       2.94383110      14.71317513
Fe       1.32231036       4.39041832      13.09661849
Fe      -0.01052777       5.85100598      -0.00545509
Fe      -0.00194443       7.32053892       1.64506020
Fe       1.32418557       5.86391273       1.64366728
Fe       1.33585485       7.31843795       0.00334552
Fe      -0.00268919       5.85719871       3.27401112
Fe      -0.00727330       7.32028104       4.92672980
Fe       1.29499494       5.84859339       4.90268519
Fe       1.30620980       7.34499515       3.27543539
Fe       0.00306895       5.86547702       6.54419411
Fe       0.01364889       7.32480306       8.18237045
Fe       1.28944646       5.85813605       8.19588993
Fe       1.30268397       7.33388519       6.55021341
Fe      -0.00095247       5.84423869       9.81992282
Fe      -0.01308925       7.32502275      11.45497262
Fe       1.33215865       5.86148273      11.44456007
Fe       1.33274406       7.31370010       9.82284865
Fe       0.00164951       5.85632473      13.10629731
Fe      -0.00933305       7.33955396      14.72751093
Fe       1.30546883       5.87272191      14.72583310
Fe       1.34028207       7.33194813      13.09492436
Fe      -0.00554431       8.80431635       0.00764995
Fe      -0.00993710      10.23988547       1.64333098
Fe       1.31650985       8.78942689       1.63276859
Fe       1.30984141      10.26018046      -0.02050224
Fe       0.00864269       8.78103236       3.27189226
Fe       0.01170755      10.24554442       4.90882328
Fe       1.31754602       8.79058174       4.89943837
Fe       1.31837191      10.25723062       3.26060455
Fe      -0.00443497       8.77959903       6.54713928
Fe      -0.00518632      10.24018955       8.17745929
Fe       1.32089820       8.79395126       8.19503256
Fe       1.33664190      10.25187082       6.53927458
Fe       0.00497094       8.79044691       9.82937064
Fe      -0.02092259      10.23872992      11.45963927
Fe       1.31471560       8.77825351      11.44460608
Fe       1.30788021      10.25659122       9.81969408
Fe      -0.00515211       8.77374987      13.08616001
Fe      -0.00577699      10.25836959      14.70312463
Fe       1.31729139       8.78357394      14.71183312
Fe       1.30887402      10.26921665      13.09818295
Fe      -0.00386949      11.71451380      -0.01717283
Fe       0.01293668      13.19035781       1.63524333
Fe       1.30889844      11.71044810       1.63502835
Fe       1.31631689      13.17931773       0.00103506
Fe       0.00651364      11.71930017       3.29047411
Fe       0.00367742      13.15845141       4.90494454
Fe       1.32108126      11.71393669       4.92296907
Fe       1.33322659      13.15691984       3.26551379
Fe       0.00138455      11.71909025       6.55268462
Fe      -0.00681998      13.19043387       8.19441195
Fe       1.31202663      11.71292854       8.17651573
Fe       1.31202777      13.17860888       6.54652490
Fe      -0.00083833      11.71828783       9.82527966
Fe       0.00905359      13.17368973      11.45168137
Fe       1.32121595      11.70716019      11.45363627
Fe       1.30152574      13.18027547       9.80449855
Fe      -0.00383577      11.71267251      13.08841325
Fe      -0.00592408      13.18520912      14.72795631
Fe       1.31337722      11.71810323      14.72212863
Fe       1.31822509      13.15575385      13.09375292
Fe       2.62138398      -0.00506408       0.01565359
Fe       2.64215399       1.46169985       1.64403038
Fe       3.93982847       0.00146203       1.63549033
Fe       3.95780156       1.46329808       0.01998877
Fe       2.63806147       0.00489710       3.26241754
Fe       2.63483121       1.47359200       4.91747433
Fe       3.94940464       0.00308819       4.89896166
Fe       3.93811843       1.48042265       3.27758223
Fe       2.63346916       0.00807897       6.54298526
Fe       2.63040289       1.47056625       8.17940078
Fe       3.93449010       0.00885960       8.16990723
Fe       3.94120365       1.46259436       6.52391739
Fe       2.63156246      -0.00312147       9.81538903
Fe       2.62378300       1.45792548      11.46030104
Fe       3.96164709       0.01015902      11.44872525
Fe       3.95285818       1.47267787       9.80841956
Fe       2.61469763      -0.00895391      13.07757954
Fe       2.62777584       1.45013012      14.72846781
Fe       3.93334439      -0.01578385      14.74136117
Fe       3.93502504       1.47474868      13.08157981
Fe       2.65626559       2.93467687       0.00728597
Fe       2.62863220       4.37382958       1.62589228
Fe       3.95848716       2.93089588       1.62449185
Fe       3.93542000       4.38722178      -0.01834216
Fe       2.64647748       2.93412133       3.26702881
Fe       2.63267706       4.38684279       4.90456891
Fe       3.95029201       2.92665326       4.90542994
Fe       3.94648833       4.39329181       3.27691967
Fe       2.63218577       2.92864836       6.55459858
Fe       2.64346277       4.40211252       8.16834157
Fe       3.94874147       2.91028830       8.17383035
Fe       3.93548523       4.37947077       6.52449022
Fe       2.64147961       2.94772692       9.81862418
Fe       2.62749310       4.39392319      11.46138307
Fe       3.97453830       2.94336883      11.45113833
Fe       3.96325864       4.39121009       9.81863017
Fe       2.62599890       2.92465467      13.07923244
Fe       2.63805246       4.39572787      14.71725233
Fe       3.92242663       2.91745509      14.74715282
Fe       3.94871336       4.42376572      13.08559509
Fe       2.63610781       5.83666957       0.00418126
Fe       2.61821600       7.31241368       1.63569995
Fe       3.94509488       5.86991473       1.64862536
Fe       3.95786522       7.32158683      -0.00692666
Fe       2.63617484       5.85948475       3.27925292
Fe       2.66432506       7.31682185       4.90890298
Fe       3.95273165       5.83923128       4.91225482
Fe       3.95864253       7.32876350       3.27322002
Fe       2.62432488       5.84524935       6.54166775
Fe       2.63881891       7.33164795       8.18598499
Fe       3.95566998       5.85630208       8.19050009
Fe       3.94786066       7.33289684       6.54835392
Fe       2.63142684       5.84065416       9.82530718
Fe       2.62678178       7.32076782      11.45576804
Fe       3.96590578       5.85050344      11.45285901
Fe       3.93580827       7.30056127       9.81330696
Fe       2.60869878       5.86579356      13.07995108
Fe       2.62967281       7.32313917      14.71542495
Fe       3.93963050       5.88703295      14.73727977
Fe       3.95170556       7.31495606      13.07884828
Fe       2.64955720       8.79182086      -0.00350110
Fe       2.63100574      10.25390052       1.64531334
Fe       3.94948383       8.78416083       1.62035287
Fe       3.94298011      10.27280285      -0.01436489
Fe       2.62366873       8.78117769       3.26296199
Fe       2.64668266      10.27577040       4.91370938
Fe       3.95782549       8.78306708       4.89552084
Fe       3.95395663      10.24653120       3.28204067
Fe       2.63186911       8.79856524       6.54258587
Fe       2.62623117      10.24513565       8.16998530
Fe       3.93880999       8.77162765       8.16914769
Fe       3.95738422      10.24557610       6.54786687
Fe       2.62670169       8.81366448       9.80423301
Fe       2.63659050      10.25843825      11.45929254
Fe       3.93148895       8.78008644      11.45589464
Fe       3.93476088      10.25291519       9.80755430
Fe       2.62798269       8.76555069      13.09961304
Fe       2.63317761      10.24131362      14.73551036
Fe       3.94778218       8.79140566      14.72265900
Fe       3.96826729      10.24346001      13.08516352
Fe       2.62633497      11.72331385       0.01672559
Fe       2.64387967      13.16298592       1.61914541
Fe       3.94266782      11.73306282       1.63249955
Fe       3.95110156      13.17576234       0.00579899
Fe       2.63609743      11.71434066       3.27420163
Fe       2.60731822      13.16562784       4.91408333
Fe       3.94734074      11.69979597       4.90944970
Fe       3.95505241      13.17900062       3.26704179
Fe       2.62564220      11.71364707       6.55731705
Fe       2.62992043      13.17932880       8.18227050
Fe       3.95543841      11.70626441       8.18679426
Fe       3.94345782      13.19886081       6.55133943
Fe       2.62857075      11.72169094       9.81141603
Fe       2.64543645      13.17834979      11.45718587
Fe       3.94096952      11.71559335      11.43419352
Fe       3.94971242      13.17614860       9.82507172
Fe       2.60695797      11.71257820      13.06167934
Fe       2.62643815      13.15808612      14.72311466
Fe       3.94556133      11.71642987      14.72329511
Fe       3.94980939      13.19010468      13.08849106
Fe       5.24795527      -0.00164457      -0.00082988
Fe       5.26133104       1.44819192       1.63180397
Fe       6.57351413       0.00573970       1.63673368
Fe       6.56877133       1.46699563      -0.00105197
Fe       5.28133493       0.01788957       3.26308992
Fe       5.26127685       1.47425873       4.91103226
Fe       6.59320845      -0.01110036       4.91698326
Fe       6.58011941       1.47483359       3.26215729
Fe       5.25147698       0.01191576       6.55080136
Fe       5.26734971       1.45701421       8.17134896
Fe       6.57017450      -0.01734057       8.17498072
Fe       6.58151794       1.46136313       6.54904008
Fe       5.27758409      -0.00320577       9.81370410
Fe       5.26744245       1.47277290      11.47687653
Fe       6.57701322      -0.00353158      11.45899750
Fe       6.56903097       1.46093928       9.80720966
Fe       5.26062159      -0.00191473      13.10647832
Fe       5.26277831       1.46691200      14.72784719
Fe       6.55820177      -0.01212628      14.71194532
Fe       6.57087764       1.46241620      13.09666637
Fe       5.25223475       2.94489361       0.00270423
Fe       5.25004488       4.40307348       1.63482135
Fe       6.57160995       2.92743102       1.64029740
Fe       6.56878032       4.38809106      -0.00682145
Fe       5.23162551       2.93708458       3.27128552
Fe       5.25051241       4.39117343       4.90982949
Fe       6.58949381       2.91334037       4.91595741
Fe       6.57858484       4.38162700       3.28067632
Fe       5.25429304       2.92160469       6.56123663
Fe       5.25759703       4.39046799       8.18415966
Fe       6.58093697       2.91198750       8.17395865
Fe       6.57660804       4.39095912       6.54417466
Fe       5.26575445       2.92966635       9.82113683
Fe       5.25237065       4.39811189      11.46600365
Fe       6.58183922       2.93390268      11.45111376
Fe       6.58131399       4.37789652       9.78819354
Fe       5.25484524       2.91466064      13.10182937
Fe       5.25168362       4.40724153      14.72956900
Fe       6.57853580       2.93404059      14.71816636
Fe       6.56933269       4.39585288      13.09869020
Fe       5.27044179       5.86480108       0.00888758
Fe       5.25657699       7.31607447       1.62961756
Fe       6.59017894       5.84402586       1.63723075
Fe       6.57529269       7.31297927      -0.00171353
Fe       5.25911510       5.85200599       3.29037112
Fe       5.26558022       7.32167830       4.90840351
Fe       6.58794381       5.85186740       4.90546900
Fe       6.57251191       7.32326185       3.25638012
Fe       5.23871191       5.85422526       6.55005448
Fe       5.28196132       7.32244157       8.18754890
Fe       6.56860935       5.85583722       8.17924641
Fe       6.58642950       7.32303198       6.52828986
Fe       5.26384524       5.86497180       9.83130998
Fe       5.26512274       7.31083417      11.44408478
Fe       6.56800274       5.84585198      11.43733564
Fe       6.59329868       7.30468157       9.81858016
Fe       5.25051973       5.85413106      13.09169799
Fe       5.25983966       7.32457139      14.72953155
Fe       6.57919760       5.85889481      14.72692906
Fe       6.58186764       7.31618811      13.08237018
Fe       5.25597294       8.77476777       0.01396354
Fe       5.26576796      10.25963520       1.64579401
Fe       6.59228724       8.80387771       1.64329908
Fe       6.58458601      10.26058449      -0.00133163
Fe       5.25437143       8.79386517       3.26424023
Fe       5.26237738      10.25403621       4.89903950
Fe       6.60234039       8.77416179       4.91774338
Fe       6.58402950      10.25895796       3.27125390
Fe       5.25768652       8.79456033       6.53976115
Fe       5.26728238      10.25889653       8.19063809
Fe       6.58069356       8.77499983       8.19103898
Fe       6.56749257      10.26678060       6.54874658
Fe       5.27126041       8.79231921       9.82574705
Fe       5.25662491      10.25165150      11.44751699
Fe       6.59012911       8.77546671      11.45786460
Fe       6.58013860      10.25354844       9.82670120
Fe       5.24694136       8.77769217      13.08061900
Fe       5.25161866      10.25242120      14.70912923
Fe       6.56531152       8.78133936      14.72247299
Fe       6.57612553      10.23879910      13.10750956
Fe       5.25499283      11.71841839      -0.00626353
Fe       5.24903017      13.19034018       1.63120800
Fe       6.59656598      11.70540616       1.63606108
Fe       6.58538210      13.15718558       0.01128350
Fe       5.26557781      11.71050493       3.26001991
Fe       5.25519330      13.17251676       4.90101191
Fe       6.57094721      11.70765403       4.90143111
Fe       6.56595558      13.16996212       3.27388469
Fe       5.25264951      11.69890215       6.53066328
Fe       5.25083075      13.17534233       8.19289260
Fe       6.57090285      11.71643269       8.17270264
Fe       6.58531621      13.16292683       6.54127531
Fe       5.26108022      11.70209220       9.81523979
Fe       5.25304269      13.17610893      11.44832977
Fe       6.57788350      11.72801227      11.44842684
Fe       6.55786482      13.18209186       9.82251677
Fe       5.25756436      11.71522050      13.09703455
Fe       5.27654471      13.18111398      14.73220250
Fe       6.56944480      11.70993200      14.71316505
Fe       6.58983175      13.16424931      13.09916641
Fe       7.90615744      -0.00420390      -0.00477094
Fe       7.90571650       1.45957889       1.63884748
Fe       9.22508591       0.00690290       1.64163949
Fe       9.20713982       1.45681301      -0.00253541
Fe       7.88126815      -0.00666988       3.28917846
Fe       7.87532674       1.44675034       4.92088643
Fe       9.21602725       0.01341449       4.90804392
Fe       9.20746273       1.46310020       3.27516060
Fe       7.87725043       0.00035828       6.54289588
Fe       7.91892653       1.45179598       8.16950193
Fe       9.19431793      -0.00904247       8.17005487
Fe       9.21444721       1.46399557       6.54841066
Fe       7.87334124       0.01204359       9.80265666
Fe       7.87846093       1.47683493      11.46115074
Fe       9.20513606       0.00409908      11.44790018
Fe       9.20506978       1.46495714       9.83743343
Fe       7.88916153      -0.00012321      13.07868684
Fe       7.89706880       1.45740128      14.74739487
Fe       9.20935991      -0.00665392      14.72429692
Fe       9.22712343       1.45142763      13.09290983
Fe       7.89840360       2.93000943       0.00872613
Fe       7.90064542       4.38462199       1.63856325
Fe       9.20273603       2.93578624       1.64328077
Fe       9.20628684       4.39801306      -0.01352774
Fe       7.88805380       2.93046279       3.26787811
Fe       7.89190398       4.36983560       4.90753770
Fe       9.21152112       2.93054272       4.91357227
Fe       9.20113370       4.39176778       3.29981190
Fe       7.88689981       2.93398598       6.56244813
Fe       7.90107104       4.40002027       8.17762178
Fe       9.20180372       2.92876921       8.16831633
Fe       9.20146948       4.38896003       6.55219719
Fe       7.89996705       2.94201369       9.79651228
Fe       7.89844851       4.38737625      11.44740659
Fe       9.22564102       2.94048136      11.45662034
Fe       9.21781475       4.39376076       9.80004740
Fe       7.90040160       2.92602804      13.08256793
Fe       7.88720979       4.39447883      14.72690392
Fe       9.21321811       2.92721756      14.71988801
Fe       9.21883909       4.39059780      13.08091139
Fe       7.89123920       5.85153296      -0.00830184
Fe       7.88101022       7.33067926       1.61991988
Fe       9.21855844       5.86099344       1.63359977
Fe       9.20769510       7.31768609       0.00602557
Fe       7.88602648       5.85641788       3.27082849
Fe       7.91143536       7.31142589       4.90358142
Fe       9.22896279       5.85590284       4.92571503
Fe       9.21889837       7.32139108       3.26220205
Fe       7.89200076       5.84698284       6.53698254
Fe       7.89036714       7.31562861       8.16034861
Fe       9.21311376       5.84539572       8.17522269
Fe       9.23017640       7.30475722       6.53900655
Fe       7.89057075       5.85554301       9.81124759
Fe       7.89660097       7.31485896      11.46802181
Fe       9.20500714       5.86268951      11.45282606
Fe       9.20200783       7.33243253       9.81343351
Fe       7.88887804       5.86737838      13.08765998
Fe       7.89584909       7.31022318      14.73004295
Fe       9.20494288       5.84460072      14.72170088
Fe       9.20057647       7.33551584      13.09498768
Fe       7.90096817       8.79259099      -0.00734097
Fe       7.89903198      10.27292115       1.63812921
Fe       9.21533456       8.77204333       1.63518401
Fe       9.20478809      10.24336535      -0.01694813
Fe       7.89037987       8.78492364       3.26274435
Fe       7.89335062      10.23992890       4.88995702
Fe       9.21780872       8.80214707       4.89620636
Fe       9.20135790      10.24093795       3.28471282
Fe       7.89100200       8.79757142       6.54079018
Fe       7.89695533      10.24926284       8.16241419
Fe       9.21118396       8.78914425       8.18128278
Fe       9.19832385      10.24687877       6.54034680
Fe       7.88810179       8.78394428       9.82356704
Fe       7.91116727      10.25743860      11.45116431
Fe       9.20285859       8.78733836      11.46193544
Fe       9.20982589      10.24618520       9.81457666
Fe       7.85672156       8.79555787      13.08967404
Fe       7.90336002      10.24400196      14.72485355
Fe       9.19827738       8.78367224      14.72813733
Fe       9.21074046      10.25038212      13.07371907
Fe       7.89975432      11.72140191       0.00718529
Fe       7.88994898      13.17097820       1.63559162
Fe       9.19913571      11.73342826       1.61765684
Fe       9.20359985      13.17619834      -0.00612544
Fe       7.89376295      11.69052128       3.25770475
Fe       7.90955735      13.16493591       4.91217905
Fe       9.20791669      11.70716311       4.90915545
Fe       9.20422939      13.18477209       3.27954294
Fe       7.88217886      11.71024680       6.53762832
Fe       7.90588307      13.20446361       8.18694115
Fe       9.21273501      11.70165817       8.18568648
Fe       9.18245536      13.18057964       6.53302694
Fe       7.90180979      11.71016012       9.82476002
Fe       7.90651986      13.17471710      11.45897184
Fe       9.21142168      11.71480758      11.43240318
Fe       9.21696391      13.16700467       9.83433439
Fe       7.88226809      11.72366472      13.07738936
Fe       7.88671933      13.15190472      14.73552643
Fe       9.21791603      11.71156313      14.72534044
Fe       9.21782018      13.17741429      13.09975373
Fe      10.52214231       0.00539809       0.00004766
Fe      10.53401170       1.46602044       1.63917085
Fe      11.83039420      -0.01031416       1.63615188
Fe      11.83906772       1.45576767       0.00882385
Fe      10.51989967      -0.00734349       3.27811813
Fe      10.53329816       1.45938062       4.90115886
Fe      11.84093027       0.00193282       4.91793762
Fe      11.83747643       1.47959605       3.27872932
Fe      10.52379951      -0.00086124       6.52986643
Fe      10.51117083       1.47967202       8.19749709
Fe      11.83560157       0.00781447       8.17054173
Fe      11.84774396       1.46732897       6.53659537
Fe      10.50005567       0.00298146       9.79542807
Fe      10.52207893       1.45608115      11.46250312
Fe      11.84358239      -0.01827593      11.45514227
Fe      11.83981094       1.45694751       9.80614775
Fe      10.51866866      -0.00777237      13.08677352
Fe      10.51532211       1.46367045      14.73941779
Fe      11.85361720       0.00379551      14.72732602
Fe      11.85172148       1.45708902      13.08258283
Fe      10.53483977       2.93815508       0.00333079
Fe      10.52023947       4.40282545       1.64335473
Fe      11.84062772       2.93345073       1.66395809
Fe      11.82990457       4.39114985      -0.00080916
Fe      10.51054365       2.92006620       3.28005197
Fe      10.54628384       4.38525853       4.92410888
Fe      11.84435574       2.92861970       4.90919288
Fe      11.84820386       4.38120826       3.27127867
Fe      10.52817618       2.93235094       6.55326446
Fe      10.52166327       4.39859234       8.16768108
Fe      11.85433023       2.93863697       8.17593120
Fe      11.84659025       4.39589361       6.54388130
Fe      10.50968022       2.92173269       9.81215961
Fe      10.52758711       4.38154192      11.45296827
Fe      11.83733928       2.92695791      11.47118701
Fe      11.85190500       4.38375040       9.81639821
Fe      10.50558924       2.94652772      13.08496412
Fe      10.52050090       4.37953867      14.73905380
Fe      11.81803719       2.93630637      14.72487714
Fe      11.84666189       4.39530852      13.09101681
Fe      10.51842207       5.85241702       0.00929744
Fe      10.52670182       7.33140353       1.65576589
Fe      11.84272025       5.85798210       1.64244179
Fe      11.84009464       7.31972159      -0.00244984
Fe      10.51085371       5.86329349       3.28906777
Fe      10.51460440       7.30553486       4.90849176
Fe      11.83613216       5.84592115       4.89654655
Fe      11.83985567       7.33525653       3.28244209
Fe      10.50913656       5.84892300       6.53867873
Fe      10.54052085       7.31925302       8.17564667
Fe      11.82605628       5.85957957       8.18549035
Fe      11.84324261       7.31731472       6.54956749
Fe      10.53579474       5.84028495       9.81063508
Fe      10.51578442       7.32080582      11.44640670
Fe      11.84704704       5.85110879      11.45568082
Fe      11.87050329       7.32652599       9.82531552
Fe      10.51599277       5.86677795      13.08565779
Fe      10.52655434       7.30381333      14.72151322
Fe      11.84687111       5.86861017      14.72584955
Fe      11.83525508       7.30630009      13.07040051
Fe      10.52282796       8.76906791      -0.00077981
Fe      10.53208026      10.23833222       1.65507688
Fe      11.84766188       8.77935004       1.63677017
Fe      11.83872911      10.22544073       0.00225420
Fe      10.51786040       8.78437672       3.28355734
Fe      10.53937250      10.25694433       4.91647072
Fe      11.85084066       8.78157917       4.92560942
Fe      11.82963912      10.25000131       3.28552612
Fe      10.52574342       8.78919393       6.54833773
Fe      10.52308306      10.24000966       8.19316622
Fe      11.83317913       8.78341861       8.18909106
Fe      11.85326057      10.23533774       6.53883399
Fe      10.54180820       8.78070511       9.82532070
Fe      10.51962031      10.27791407      11.45895053
Fe      11.83593351       8.77079733      11.46864969
Fe      11.83653570      10.25037209       9.82105656
Fe      10.52866073       8.77985649      13.08454495
Fe      10.54170093      10.23244429      14.73904155
Fe      11.85087599       8.78629423      14.72700798
Fe      11.84241478      10.22683267      13.09232647
Fe      10.51294680      11.72194520       0.00535238
Fe      10.52578824      13.16709130       1.62631490
Fe      11.84033766      11.70995424       1.64371994
Fe      11.82858473      13.16034261      -0.00707345
Fe      10.53097899      11.71792962       3.26556867
Fe      10.53285311      13.18389251       4.90483822
Fe      11.82990642      11.71043490       4.91762369
Fe      11.85186819      13.17421362       3.26829728
Fe      10.53879865      11.70655379       6.54457150
Fe      10.52905237      13.16077746       8.18819186
Fe      11.86012628      11.69324142       8.18981839
Fe      11.83068093      13.18386240       6.53378847
Fe      10.51601777      11.71749241       9.82021437
Fe      10.53434654      13.18219287      11.44729660
Fe      11.82996739      11.73161901      11.44253865
Fe      11.83749752      13.18439325       9.80537815
Fe      10.51289810      11.72848270      13.08445590
Fe      10.53500283      13.19635169      14.71424549
Fe      11.83895304      11.70718076      14.71012394
Fe      11.83896234      13.18688284      13.08503804
