4
Lattice="66.0791347035272 0.0 0.0 0.0 66.0791347035272 0.0 0.0 0.0 66.0791347035272" Properties=species:S:1:pos:R:3:initial_magmoms:R:1 id=sample_001735 pbc="T T T"
Fe      32.67610875      32.68052651      32.67935828       2.30000000
Fe      34.10750530      34.11278143      31.25177598       2.30000000
Fe      34.11738863      31.25098478      34.11056557       2.30000000
Fe      31.24550999      34.12029557      34.11585939       2.30000000
