108
Lattice="11.998528869094459 0.0 0.0 0.0 10.603739042971435 0.0 0.0 0.0 11.189081312796878" Properties=species:S:1:pos:R:3 id=sample_001805 pbc="F F F"
Cu       0.01406762      -0.00051280       0.00370043
Cu       0.00287114       1.78669384       1.84917784
Cu       2.00469514      -0.00300969       1.87302811
Cu       1.99788886       1.75597245       0.01926961
Cu      -0.01298435       0.00324979       3.74267020
Cu       0.00989418       1.76536290       5.60054591
Cu       2.00079359      -0.00147602       5.56945129
Cu       1.97277194       1.76663166       3.73066453
Cu       0.01898045      -0.00731892       7.45727052
Cu      -0.02521073       1.76620126       9.31954635
Cu       1.98540458       0.00687437       9.32118647
Cu       2.01606627       1.76831497       7.46759808
Cu      -0.00459652       3.54815817       0.00692960
Cu      -0.01525920       5.29244523       1.86947811
Cu       1.99451664       3.54894750       1.85748474
Cu       1.98869616       5.31135305       0.00038820
Cu       0.00983113       3.53025185       3.72726104
Cu      -0.00992585       5.28849604       5.60041166
Cu       2.00780512       3.54260151       5.59954518
Cu       2.01247863       5.29387607       3.72962123
Cu       0.01881602       3.52309860       7.47399642
Cu       0.01098638       5.30009723       9.31723375
Cu       1.99295173       3.53439109       9.33520090
Cu       1.98943614       5.30549825       7.45698695
Cu      -0.01494261       7.07217783       0.00626303
Cu       0.00675770       8.84358255       1.87579991
Cu       2.00911583       7.07602635       1.86888245
Cu       1.99983981       8.82651086      -0.00995528
Cu       0.00834435       7.06039762       3.72739851
Cu      -0.00576101       8.81934965       5.57921387
Cu       1.98542193       7.07648216       5.58466893
Cu       2.01111438       8.86183834       3.72016341
Cu       0.00511219       7.06398476       7.45198484
Cu      -0.00319092       8.83554824       9.32645051
Cu       1.98450502       7.06906440       9.29709430
Cu       2.00467072       8.84400384       7.44757259
Cu       3.99430921       0.01339670       0.00782772
Cu       4.00904621       1.77047213       1.86253100
Cu       5.99007482       0.00336883       1.85473214
Cu       5.99631871       1.76196243      -0.01319608
Cu       3.99853952       0.02443144       3.74304672
Cu       3.98768607       1.76972846       5.58943511
Cu       6.00705841      -0.01124816       5.58467546
Cu       5.97756995       1.77453073       3.76090735
Cu       3.99249966      -0.00155674       7.47329560
Cu       3.98184921       1.76935746       9.33310239
Cu       5.99485353      -0.00739689       9.32837138
Cu       5.99175709       1.76093105       7.47419371
Cu       4.00652345       3.55231628      -0.00369284
Cu       3.99002207       5.30790447       1.84984595
Cu       6.00384761       3.54767944       1.85804004
Cu       6.00815170       5.29097534      -0.02212756
Cu       3.99772661       3.54242693       3.70835835
Cu       4.00292330       5.29861871       5.59750039
Cu       6.00388055       3.53014280       5.59658129
Cu       5.99579720       5.30295647       3.73585046
Cu       3.98263168       3.53610131       7.46193573
Cu       4.01294171       5.29598314       9.33504593
Cu       6.00321994       3.55880534       9.32244646
Cu       5.99376286       5.29658607       7.44717406
Cu       3.99573263       7.06197248      -0.00426773
Cu       3.98867609       8.81982224       1.86363061
Cu       5.98551207       7.06491226       1.87229310
Cu       5.99716830       8.83212191       0.00167628
Cu       4.00808314       7.07200598       3.73668153
Cu       3.99317372       8.82807654       5.59079681
Cu       6.00928125       7.07534174       5.58766311
Cu       6.00887487       8.84165526       3.73408608
Cu       4.00441658       7.06960724       7.45800404
Cu       3.98634807       8.85514807       9.33407337
Cu       6.01358579       7.05284192       9.32805248
Cu       5.99355625       8.83369943       7.46116084
Cu       8.01299310      -0.01396625      -0.00698128
Cu       7.98570154       1.77386092       1.85748539
Cu      10.00033099       0.00965500       1.87576061
Cu       9.99974089       1.77336391      -0.02095040
Cu       8.00244813      -0.00721773       3.74173726
Cu       8.01409128       1.75914498       5.60211361
Cu      10.01829981       0.00271470       5.60514999
Cu      10.00168914       1.77115746       3.72521994
Cu       8.00039470      -0.00748116       7.47608546
Cu       8.00578893       1.75801022       9.31824502
Cu       9.99175695       0.01318354       9.32958445
Cu       9.99933645       1.74797907       7.46494513
Cu       8.02626548       3.52741854       0.00144560
Cu       7.99714810       5.31022334       1.85952670
Cu       9.98010379       3.53609560       1.88929298
Cu       9.98405230       5.31462827       0.00631118
Cu       8.01186262       3.52912296       3.72433811
Cu       8.01009915       5.29412368       5.59957926
Cu      10.01386878       3.53732373       5.59936031
Cu       9.99126924       5.30441310       3.70535980
Cu       7.98889578       3.56433343       7.45760631
Cu       8.00584658       5.30957774       9.31315833
Cu       9.99293037       3.54560694       9.30942353
Cu       9.99837670       5.29277163       7.46221080
Cu       8.00788143       7.07514795       0.00148096
Cu       7.99860408       8.84530717       1.87778249
Cu       9.98950831       7.07557543       1.88088512
Cu       9.99863656       8.81818455       0.01926851
Cu       8.00445501       7.07345750       3.72853222
Cu       7.98997152       8.83091111       5.57716955
Cu       9.99459681       7.07310051       5.60412176
Cu       9.99877237       8.83546786       3.72625463
Cu       8.00881060       7.05651457       7.45569800
Cu       8.01619189       8.83446396       9.30433843
Cu       9.99430392       7.07864885       9.32014008
Cu      10.00927878       8.83487745       7.46432026
