500
Lattice="22.77424430647152 0.0 0.0 0.0 25.080890403880645 0.0 0.0 0.0 24.905149213026906" Properties=species:S:1:pos:R:3 id=sample_001995 pbc="F F F"
Al      -0.00229090       0.02041834      -0.02388146
Al       0.01039163       2.50913068       2.52822483
Al       2.27909281      -0.00318402       2.47588623
Al       2.27618854       2.51392515      -0.00799031
Al      -0.00251738      -0.00317453       4.97982969
Al       0.01445984       2.49234529       7.45432957
Al       2.29593784      -0.01893785       7.49620220
Al       2.24858842       2.48033294       4.98945389
Al      -0.02942334       0.02731803       9.96026450
Al       0.00955959       2.52016017      12.45774874
Al       2.29218402      -0.00256408      12.45634477
Al       2.27610321       2.49976658       9.95424274
Al       0.01363362       0.00905357      14.92150682
Al       0.01493611       2.47601298      17.42356212
Al       2.25262661       0.01194928      17.43567119
Al       2.29642443       2.49800637      14.93922253
Al       0.00373091       0.01991681      19.91601932
Al      -0.00569176       2.52243865      22.39800030
Al       2.25169178      -0.01566363      22.39493565
Al       2.28978370       2.50567870      19.89456686
Al      -0.00674222       5.01430964      -0.01057952
Al      -0.01398156       7.51292967       2.49501583
Al       2.26603126       5.01269381       2.47480495
Al       2.26977651       7.52276858       0.00032186
Al       0.00126525       5.01088036       4.98671608
Al      -0.00354495       7.51165058       7.44714148
Al       2.27328639       5.02171484       7.45794579
Al       2.26809176       7.50571049       4.97655536
Al      -0.00281081       4.98975119       9.96272018
Al      -0.00517318       7.54082830      12.44933901
Al       2.28732304       5.02096152      12.45648728
Al       2.26697984       7.53491398       9.97045464
Al      -0.00174406       4.99221313      14.94123909
Al       0.02659507       7.52968867      17.43526763
Al       2.28214445       5.02700200      17.41634218
Al       2.28177265       7.51679679      14.94958468
Al       0.01122770       5.01880616      19.93487294
Al      -0.01778401       7.50874702      22.43009024
Al       2.24508214       5.01205324      22.41967623
Al       2.27652782       7.51129090      19.91146953
Al      -0.00328745      10.00950395       0.01162142
Al       0.00003909      12.55000100       2.47426799
Al       2.26105829      10.02707274       2.49099708
Al       2.28207478      12.55607139       0.01547709
Al       0.00374093      10.03960944       4.96899922
Al      -0.01250668      12.56252355       7.48192045
Al       2.28556587      10.04615487       7.45876149
Al       2.25852123      12.52807836       4.98275484
Al      -0.00538816      10.03016514       9.94096822
Al      -0.00190965      12.52383507      12.43618041
Al       2.25724939      10.02164988      12.45631432
Al       2.28697600      12.54369972       9.95352503
Al       0.00005026      10.03436911      14.94477319
Al       0.01092277      12.53624275      17.44259577
Al       2.27750620      10.04217789      17.44040631
Al       2.28486804      12.53762663      14.93757980
Al       0.00388871      10.02779106      19.92702261
Al      -0.00321214      12.53513615      22.39495975
Al       2.27979392      10.01460041      22.39746584
Al       2.27506197      12.51086274      19.92972890
Al      -0.00866295      15.06362693       0.01505014
Al      -0.00910121      17.58165348       2.50168813
Al       2.29554349      15.05917138       2.51765902
Al       2.25841132      17.56566376      -0.00705039
Al       0.00547428      15.02638761       4.97415989
Al       0.00987213      17.58263137       7.47407136
Al       2.28563423      15.06609091       7.47221272
Al       2.27367706      17.54269236       4.95639406
Al      -0.00273416      15.03719466       9.96086720
Al      -0.00356537      17.54764954      12.45475597
Al       2.28229877      15.06703074      12.45659503
Al       2.24897742      17.54438914       9.97868392
Al       0.00348743      15.04086395      14.94834089
Al       0.01266139      17.55007939      17.41921106
Al       2.29518682      15.05032251      17.43581113
Al       2.29764965      17.53980998      14.93700449
Al      -0.02047332      15.05684662      19.91184434
Al      -0.00856287      17.56853157      22.43793411
Al       2.27895244      15.04458860      22.40797802
Al       2.26696146      17.55586330      19.94335228
Al       0.02841829      20.07562048       0.01871096
Al      -0.00375964      22.57353700       2.49422866
Al       2.29775065      20.06211999       2.52418942
Al       2.29119836      22.57920308      -0.02133150
Al      -0.01216436      20.08800059       4.98908424
Al       0.00502008      22.55586826       7.47058568
Al       2.26916651      20.06366465       7.48160259
Al       2.28634807      22.54114997       4.98400678
Al       0.01099023      20.06084409       9.96006160
Al      -0.00173503      22.56177060      12.45192124
Al       2.27012836      20.06147666      12.45842484
Al       2.27139428      22.58430658       9.97933084
Al       0.00647647      20.06089998      14.93960637
Al       0.00103266      22.52882951      17.42148112
Al       2.29588328      20.03989454      17.40217634
Al       2.28792234      22.60073975      14.93928301
Al      -0.01129488      20.06098387      19.93037819
Al       0.00750174      22.56857375      22.41679340
Al       2.26093124      20.06939174      22.42046183
Al       2.27090838      22.58476136      19.92039478
Al       4.55376698      -0.00502155       0.00061088
Al       4.53463878       2.51413470       2.47572221
Al       6.84848902       0.00718678       2.51876568
Al       6.84189168       2.50186067      -0.00380974
Al       4.56857366      -0.00514749       4.97059884
Al       4.56692497       2.49818278       7.43824507
Al       6.83151584       0.00220049       7.47705237
Al       6.83220848       2.49345744       4.99086951
Al       4.56510799       0.00880071       9.96343527
Al       4.58732142       2.50701861      12.44417194
Al       6.83969610       0.01276129      12.46212126
Al       6.79647752       2.51128264       9.96408071
Al       4.56182878       0.00565641      14.94398798
Al       4.56501881       2.52877566      17.42965063
Al       6.82653039      -0.00054943      17.43629097
Al       6.82510404       2.51171537      14.93765951
Al       4.55801180      -0.01227811      19.91898346
Al       4.54581202       2.50971791      22.41586658
Al       6.82912544       0.00115757      22.42567928
Al       6.81791164       2.51533436      19.91288574
Al       4.55655080       4.99102567      -0.02567900
Al       4.54712089       7.51520395       2.49379009
Al       6.81034234       5.01819768       2.49740698
Al       6.84363988       7.52674088       0.00429682
Al       4.54315873       5.02009645       4.96946486
Al       4.54483088       7.53514611       7.48700981
Al       6.82151241       5.02744953       7.46162454
Al       6.83954260       7.55251147       4.97615369
Al       4.57537108       5.00671530       9.95261766
Al       4.52390727       7.55150759      12.46146290
Al       6.82409793       5.02716880      12.44113785
Al       6.81760122       7.53495030       9.95442340
Al       4.57422625       5.04381635      14.97240332
Al       4.54952502       7.50766138      17.44567603
Al       6.84071740       5.02465194      17.43078009
Al       6.82879800       7.51342628      14.94240577
Al       4.56168642       5.01469723      19.90071323
Al       4.54057772       7.53655450      22.43319820
Al       6.84185961       5.01463186      22.41116838
Al       6.82586162       7.52757469      19.93654454
Al       4.56535768      10.00484692      -0.01978629
Al       4.55075637      12.54314568       2.50341049
Al       6.81167079      10.02203807       2.49126528
Al       6.79870146      12.54262353      -0.01195772
Al       4.54891780      10.03016208       4.97896929
Al       4.53789511      12.53067969       7.46563240
Al       6.85174302      10.02704150       7.46426028
Al       6.83227360      12.54125425       4.97732326
Al       4.54983660      10.03484625       9.97901830
Al       4.57265489      12.53110482      12.42626629
Al       6.83774400       9.99805711      12.45475454
Al       6.84282005      12.54009948       9.92452250
Al       4.54308588      10.01182559      14.92290406
Al       4.54007081      12.56444263      17.43510379
Al       6.84310972      10.05143411      17.41631991
Al       6.82476568      12.53130520      14.94138341
Al       4.55788164      10.03997828      19.91576928
Al       4.55043974      12.53337487      22.40872780
Al       6.84276011      10.01104477      22.43059729
Al       6.83148431      12.53980322      19.92006614
Al       4.52684080      15.03375216       0.00094107
Al       4.55214729      17.56561487       2.49628852
Al       6.84822906      15.04796882       2.48057944
Al       6.84237853      17.56314617       0.01550199
Al       4.53098617      15.04777000       4.95375428
Al       4.53349119      17.55639457       7.48999846
Al       6.82927947      15.07324315       7.48266789
Al       6.83341583      17.54722727       4.99565260
Al       4.56397398      15.06902130       9.98591233
Al       4.55474046      17.57995340      12.46237229
Al       6.85709911      15.05530704      12.45204035
Al       6.83114976      17.56889523       9.95810379
Al       4.56542017      15.04005029      14.92605049
Al       4.54661325      17.55949271      17.42048077
Al       6.84106244      15.03943194      17.42519123
Al       6.81411795      17.56710552      14.94899287
Al       4.54862440      15.04794238      19.90367855
Al       4.56765478      17.55408474      22.41225727
Al       6.80616118      15.02815156      22.43151374
Al       6.82975613      17.56226225      19.89780927
Al       4.55665199      20.06124784       0.00023766
Al       4.57590604      22.56134280       2.49057542
Al       6.83594452      20.09045005       2.47588342
Al       6.84519405      22.56307917      -0.00084037
Al       4.56432423      20.06427983       4.95709532
Al       4.55042022      22.58570210       7.49312437
Al       6.85546091      20.04339108       7.47402636
Al       6.83463579      22.55820129       4.99089633
Al       4.55895451      20.05473529       9.95398989
Al       4.56584251      22.57320363      12.45541942
Al       6.80990845      20.07173012      12.45091815
Al       6.83821116      22.55986697       9.94147111
Al       4.56216142      20.05807108      14.93324723
Al       4.53603760      22.58158838      17.44377032
Al       6.83198146      20.08667958      17.45305033
Al       6.85361248      22.58870464      14.94672094
Al       4.56284241      20.04484115      19.92533863
Al       4.52813449      22.56163957      22.43008107
Al       6.81056756      20.06160061      22.41446329
Al       6.83531760      22.57604538      19.93022043
Al       9.11694499      -0.00281752       0.01572029
Al       9.11501047       2.48838542       2.49374241
Al      11.39383915       0.00983180       2.52438318
Al      11.38807010       2.49826844      -0.00182339
Al       9.15070235      -0.01499156       4.98868040
Al       9.10639680       2.51405324       7.45741435
Al      11.40309446       0.01178810       7.48518072
Al      11.37767817       2.51344908       4.97487456
Al       9.11448620       0.02731335       9.95411969
Al       9.11811660       2.49861146      12.43649020
Al      11.36997025      -0.02330411      12.44736462
Al      11.39497184       2.52127459       9.95602148
Al       9.12272614      -0.00113161      14.97018829
Al       9.11758436       2.47448092      17.43317223
Al      11.39227828       0.01725529      17.43851648
Al      11.40784389       2.49004486      14.94170767
Al       9.12413327       0.01851520      19.91428658
Al       9.10888403       2.53424774      22.40967605
Al      11.36955539      -0.01512828      22.40897827
Al      11.38489640       2.52017628      19.89198989
Al       9.11760258       5.01789795      -0.00528528
Al       9.11146910       7.54097682       2.49117830
Al      11.39322566       5.01099218       2.50706343
Al      11.36221036       7.54230712       0.00322057
Al       9.08410769       5.00816208       4.98885901
Al       9.12186860       7.50803904       7.46655622
Al      11.37650466       5.01329683       7.47498252
Al      11.39416927       7.48929282       4.96121492
Al       9.10044237       5.00682938       9.96382769
Al       9.11376768       7.50738762      12.42036425
Al      11.41002568       5.00538209      12.44106688
Al      11.35818030       7.53280261       9.99435572
Al       9.09595946       5.02614301      14.95963533
Al       9.11240992       7.52527922      17.42806031
Al      11.38926943       5.03137029      17.46741376
Al      11.36246902       7.48966661      14.92757693
Al       9.11189360       5.00940491      19.93315557
Al       9.10817389       7.55984937      22.39390153
Al      11.37948189       5.01821779      22.44424966
Al      11.39906308       7.52137748      19.93687189
Al       9.08368051      10.01795508       0.01017180
Al       9.11412013      12.50744187       2.51802909
Al      11.41556015      10.04325424       2.50348185
Al      11.37862849      12.53555849      -0.00061318
Al       9.09700655      10.04342544       5.00226488
Al       9.12974039      12.53932523       7.48526232
Al      11.39541062      10.03303149       7.48027273
Al      11.38922867      12.55354754       4.95898566
Al       9.13219615      10.06190303       9.95974787
Al       9.11137440      12.50707655      12.45001354
Al      11.39642390      10.02129294      12.44123352
Al      11.38762277      12.51576175       9.94488135
Al       9.10973383      10.02172549      14.95300347
Al       9.10302231      12.56125980      17.42038530
Al      11.39110684      10.03464407      17.42363541
Al      11.40450611      12.53868784      14.97166108
Al       9.11320220      10.03367874      19.92196585
Al       9.14656753      12.55821672      22.40530644
Al      11.37746996      10.03265417      22.41607210
Al      11.38105559      12.54650798      19.94950074
Al       9.11426709      15.05226368      -0.02441354
Al       9.10001395      17.52088255       2.50231808
Al      11.40230890      15.03995299       2.51141167
Al      11.39373892      17.56727991      -0.01837086
Al       9.12962307      15.06737111       4.95855481
Al       9.09051610      17.56374558       7.50864286
Al      11.37584402      15.04379804       7.48104168
Al      11.40238772      17.56123559       4.95939472
Al       9.10369019      15.02560046       9.95423988
Al       9.12405318      17.55379668      12.44466261
Al      11.36966533      15.03794005      12.47145777
Al      11.36998074      17.56884132       9.96953613
Al       9.11334714      15.06721142      14.95980764
Al       9.09825966      17.54079798      17.44330502
Al      11.38340971      15.03024249      17.42312386
Al      11.38560280      17.54163468      14.92907665
Al       9.10817728      15.05759637      19.93435251
Al       9.09550376      17.57458299      22.40798471
Al      11.38078485      15.03846377      22.42058095
Al      11.40578192      17.56222885      19.92504564
Al       9.12669274      20.06512574       0.00284303
Al       9.10683513      22.57620070       2.46207927
Al      11.39607397      20.06291529       2.50461193
Al      11.38899780      22.55782578       0.01884320
Al       9.11378835      20.07671424       4.99517568
Al       9.12015242      22.56227152       7.47120139
Al      11.39958990      20.03672781       7.47229966
Al      11.38779860      22.57812361       4.99482598
Al       9.11274144      20.07374177       9.98217905
Al       9.10835813      22.53107846      12.46803343
Al      11.36616330      20.05682574      12.45318817
Al      11.40782905      22.57588516       9.94024136
Al       9.13185050      20.08153520      14.95615189
Al       9.08683539      22.57023235      17.41358962
Al      11.36908245      20.06801443      17.43477911
Al      11.39054452      22.54880271      14.94220813
Al       9.12025297      20.04186923      19.91276189
Al       9.10677788      22.58128204      22.42225694
Al      11.37384542      20.07624919      22.42530896
Al      11.39090967      22.55498714      19.92164220
Al      13.66076682       0.00589588       0.00942968
Al      13.67404258       2.50342497       2.48715551
Al      15.93147626       0.00054659       2.48013973
Al      15.95150131       2.50495527       0.00619480
Al      13.66035096       0.01039313       4.98351204
Al      13.67269204       2.47552818       7.47987046
Al      15.95739365      -0.00758338       7.47522185
Al      15.93640584       2.50029978       4.97788406
Al      13.64509040      -0.00590497       9.96425328
Al      13.66467103       2.50929696      12.46420497
Al      15.94035955      -0.01421022      12.45708825
Al      15.95305919       2.49532822       9.96199714
Al      13.65333734      -0.00264061      14.96347364
Al      13.67557389       2.50266444      17.44262065
Al      15.92219071       0.02022555      17.41847232
Al      15.95314531       2.49615884      14.94177992
Al      13.67321921      -0.01293645      19.94464377
Al      13.67358577       2.49952940      22.41466705
Al      15.90975639       0.01373358      22.39308546
Al      15.93365784       2.52613685      19.90680882
Al      13.68095387       5.01264744       0.01794625
Al      13.66254677       7.52119974       2.48830228
Al      15.92723748       5.00122893       2.49712958
Al      15.97266087       7.52082862       0.00111280
Al      13.66368439       5.01159017       4.96329096
Al      13.66720754       7.52438808       7.47343267
Al      15.95176672       5.01580800       7.48055565
Al      15.93582399       7.52976756       4.97632476
Al      13.66889133       5.00726033      10.00039105
Al      13.64786395       7.52888775      12.45913288
Al      15.95500385       5.02103196      12.48300567
Al      15.93002562       7.53106914       9.96760307
Al      13.65898917       5.03685728      14.93008613
Al      13.67364664       7.50751386      17.45848523
Al      15.96828306       5.02491797      17.44810688
Al      15.94800086       7.51305573      14.97347200
Al      13.65677098       5.00308429      19.88864091
Al      13.65410631       7.50853236      22.41181151
Al      15.92398462       5.01355012      22.38758710
Al      15.92510529       7.49071472      19.92225369
Al      13.65982243      10.01336334       0.02485126
Al      13.69064856      12.54701990       2.47447279
Al      15.92775610      10.03056918       2.49975637
Al      15.93427846      12.53274814      -0.00396052
Al      13.66906764      10.04027564       4.99126259
Al      13.67392814      12.53435736       7.46625451
Al      15.94621084      10.04719509       7.46709571
Al      15.94696063      12.55245517       4.97887621
Al      13.66886457      10.01299931       9.92366383
Al      13.67214246      12.54577152      12.43340965
Al      15.95035681      10.01433447      12.45205318
Al      15.93896021      12.53162478       9.95453688
Al      13.66857822      10.02779253      14.93504052
Al      13.68080321      12.52206496      17.43695650
Al      15.94643517      10.00999436      17.44096335
Al      15.95487644      12.52778522      14.95303519
Al      13.64746143      10.04025717      19.92566059
Al      13.64029459      12.52659356      22.41614829
Al      15.93546166      10.02448875      22.42724372
Al      15.94440287      12.53370011      19.89683836
Al      13.63347747      15.03489970      -0.01964529
Al      13.67762397      17.55577730       2.49182503
Al      15.95822862      15.02398662       2.49791813
Al      15.93814410      17.55275505      -0.00998778
Al      13.66350487      15.04749615       4.99684769
Al      13.65157918      17.56170659       7.45858468
Al      15.96133254      15.03737106       7.49055037
Al      15.95700216      17.56700323       5.00018618
Al      13.65192831      15.05491008       9.97249217
Al      13.63839497      17.54881849      12.44031884
Al      15.94858673      15.05355567      12.43075818
Al      15.94054136      17.53665459       9.97066712
Al      13.66477183      15.04433966      14.94786231
Al      13.66302893      17.54023954      17.42907826
Al      15.95041742      15.04241420      17.42570930
Al      15.93556212      17.55739197      14.91908829
Al      13.67733349      15.04882357      19.90453090
Al      13.66882269      17.57907035      22.42102515
Al      15.93566279      15.05771074      22.41948505
Al      15.94918256      17.54053582      19.91645305
Al      13.68847088      20.06711413       0.01510750
Al      13.66281161      22.55255220       2.50102611
Al      15.96323619      20.06984606       2.49899992
Al      15.94158237      22.56463061      -0.00247093
Al      13.66486445      20.08202270       4.97186352
Al      13.64306562      22.56203466       7.46310283
Al      15.94497398      20.07430919       7.45625334
Al      15.94528691      22.58341636       4.98455961
Al      13.65571547      20.06517135       9.95017659
Al      13.65990324      22.55785765      12.43648139
Al      15.95213406      20.05747938      12.44076882
Al      15.93653085      22.56794593       9.95654450
Al      13.68579054      20.08244163      14.94778664
Al      13.65679975      22.57672721      17.46442098
Al      15.94034892      20.04386730      17.42879927
Al      15.92967917      22.60407287      14.93432216
Al      13.68453253      20.08193289      19.92984326
Al      13.65537867      22.57584705      22.38216249
Al      15.92899982      20.06003041      22.41168831
Al      15.94139031      22.56773138      19.91989373
Al      18.19368249      -0.01709078       0.02814941
Al      18.23981897       2.49625776       2.47775833
Al      20.51001539      -0.02099644       2.49555763
Al      20.47393929       2.49360195      -0.01084174
Al      18.22351229      -0.00862663       4.95718421
Al      18.22706047       2.51277315       7.45924624
Al      20.50953594      -0.00976092       7.46676113
Al      20.46384770       2.50125919       4.99330209
Al      18.20834986       0.00016400       9.95619364
Al      18.20133720       2.50460741      12.42748909
Al      20.50081501      -0.01773701      12.43955034
Al      20.48933617       2.53437044       9.97564881
Al      18.22785731       0.00192308      14.95639028
Al      18.23596465       2.51629629      17.44899523
Al      20.50242484      -0.00597734      17.41638219
Al      20.47683742       2.50903145      14.94015072
Al      18.21726497       0.01664546      19.94399391
Al      18.24445639       2.53169967      22.39715960
Al      20.50725633      -0.00829010      22.42924658
Al      20.49350058       2.51508768      19.92903040
Al      18.21137304       5.02258550       0.01947838
Al      18.24276409       7.50946833       2.48585359
Al      20.47698324       5.01451942       2.48693675
Al      20.48866081       7.54236272       0.02417279
Al      18.23557627       5.02626430       4.95583542
Al      18.21436469       7.52994306       7.45681329
Al      20.50189643       4.99780399       7.46779114
Al      20.50559840       7.53224367       4.99842833
Al      18.21900806       5.00063642       9.95637226
Al      18.21850987       7.53321006      12.45317598
Al      20.49132438       5.01890150      12.44683630
Al      20.50804684       7.50438734       9.94224297
Al      18.23200845       5.00108993      14.93887434
Al      18.21232297       7.50372792      17.45609855
Al      20.49138913       5.01335472      17.43042550
Al      20.47580595       7.53020559      14.93324259
Al      18.21349142       5.02580306      19.92407515
Al      18.23699602       7.53166025      22.40794838
Al      20.50331013       5.03779423      22.42012780
Al      20.47012638       7.50870077      19.94181674
Al      18.21544309      10.04519253      -0.00654584
Al      18.23009886      12.53958348       2.48985960
Al      20.50250790      10.03800225       2.48076145
Al      20.50331488      12.52534392       0.01538197
Al      18.24813605      10.03819043       4.96899647
Al      18.20927728      12.54023424       7.48248288
Al      20.49404611      10.03452342       7.47890696
Al      20.52516839      12.53977507       4.97873566
Al      18.22450484      10.03389238       9.97626106
Al      18.21866704      12.54660485      12.44160193
Al      20.50358452      10.02167619      12.46801751
Al      20.50333158      12.52130163       9.97135109
Al      18.21600303      10.06683264      14.95103834
Al      18.21036281      12.54778943      17.40598549
Al      20.51304118      10.01914144      17.43572550
Al      20.52639111      12.53682101      14.93937244
Al      18.20978616      10.02228126      19.91349594
Al      18.24629828      12.54647462      22.43073939
Al      20.48377490      10.03254860      22.39575954
Al      20.49451623      12.53713049      19.89710342
Al      18.23853795      15.03106066      -0.00844183
Al      18.19178946      17.55499863       2.52346323
Al      20.49465478      15.07336976       2.50670683
Al      20.49908422      17.55399270       0.02686522
Al      18.23472917      15.02552121       4.97868755
Al      18.20725789      17.54270318       7.49655522
Al      20.49363292      15.04922305       7.47636817
Al      20.49609789      17.54429891       4.98390444
Al      18.20632826      15.03455636       9.98029649
Al      18.23911349      17.55167690      12.46593545
Al      20.48025144      15.05661853      12.46976024
Al      20.52625829      17.55970720       9.97432208
Al      18.22406355      15.04611666      14.94573179
Al      18.23132146      17.56189688      17.42696968
Al      20.48054525      15.04579017      17.44375418
Al      20.50059413      17.55086997      14.94152610
Al      18.20040155      15.06601033      19.94477705
Al      18.21520303      17.53802022      22.43872625
Al      20.49253968      15.06995682      22.40645923
Al      20.49428143      17.56025605      19.91662304
Al      18.21193812      20.05986281      -0.01788479
Al      18.22845861      22.56839743       2.47773129
Al      20.48065648      20.06909780       2.50837154
Al      20.52376838      22.54099420      -0.00414789
Al      18.22516788      20.07633448       4.96541993
Al      18.23541032      22.56732880       7.47950505
Al      20.47524106      20.05938915       7.48151753
Al      20.49935515      22.54393620       4.97768978
Al      18.21299362      20.07421625       9.96422670
Al      18.20899373      22.57781904      12.43947592
Al      20.51566126      20.10065586      12.45314581
Al      20.51396063      22.60447132       9.95399974
Al      18.21430955      20.06515271      14.95303403
Al      18.22966111      22.56652600      17.45633150
Al      20.48052185      20.06603283      17.40061035
Al      20.50285016      22.58552781      14.90808185
Al      18.20054971      20.07515628      19.92295180
Al      18.21405815      22.57472715      22.42569702
Al      20.48257456      20.06888804      22.39991960
Al      20.50630285      22.59340579      19.91586113
