108
Lattice="13.163813724277825 0.0 0.0 0.0 10.656019612412852 0.0 0.0 0.0 10.424828361296425" Properties=species:S:1:pos:R:3 id=sample_000048 pbc="F F F"
Cu      -0.01332298       0.00396217       0.00574269
Cu      -0.00679972       1.77129743       1.73981519
Cu       2.18889872       0.01593164       1.74148018
Cu       2.18931493       1.78482125       0.00197176
Cu      -0.00562875      -0.01057879       3.47152360
Cu       0.01330616       1.76925787       5.22723114
Cu       2.18932741      -0.00243519       5.20280498
Cu       2.19042126       1.75948897       3.46181274
Cu       0.00664202      -0.00498716       6.94974009
Cu      -0.00038855       1.78109398       8.68779850
Cu       2.19708829       0.02065653       8.70865833
Cu       2.19304518       1.77963274       6.94627009
Cu      -0.00106179       3.54671860      -0.01919290
Cu      -0.00142548       5.32578414       1.74028341
Cu       2.18891039       3.53808177       1.74688679
Cu       2.20371762       5.32764526      -0.00455057
Cu      -0.00023495       3.55224337       3.47365727
Cu       0.02431312       5.32639560       5.20550250
Cu       2.19711666       3.55213308       5.20284418
Cu       2.20093022       5.32447130       3.45792291
Cu       0.00666528       3.55010073       6.93625968
Cu       0.00241092       5.32290340       8.68128389
Cu       2.18539394       3.55024797       8.67843152
Cu       2.19980523       5.33515524       6.95964186
Cu      -0.00994261       7.08941700      -0.00015586
Cu      -0.00640861       8.89819041       1.75003085
Cu       2.19013506       7.09746782       1.72607273
Cu       2.18938785       8.87002136       0.01920840
Cu       0.00478174       7.10085404       3.48039186
Cu       0.00157772       8.88333716       5.22776874
Cu       2.19517917       7.11726948       5.23014780
Cu       2.19525378       8.86137317       3.48340535
Cu      -0.00387253       7.10739383       6.95906201
Cu      -0.00817121       8.88670653       8.69774789
Cu       2.20093617       7.09928827       8.67854526
Cu       2.18391404       8.87742147       6.94633624
Cu       4.37623263      -0.00002644       0.00193334
Cu       4.38744752       1.76727315       1.74787229
Cu       6.59426614       0.00309236       1.73535719
Cu       6.58880617       1.77757797      -0.00234435
Cu       4.38604070      -0.00542432       3.47022637
Cu       4.40299997       1.76093888       5.21543132
Cu       6.57977374      -0.00163906       5.20138700
Cu       6.59815797       1.76023630       3.45974268
Cu       4.37945459       0.00562508       6.95614342
Cu       4.38409464       1.77051475       8.69076967
Cu       6.57362891       0.02008136       8.69510087
Cu       6.57702320       1.78396385       6.95181781
Cu       4.38962649       3.56016456       0.01081639
Cu       4.38793187       5.32672194       1.74964267
Cu       6.58743009       3.56343259       1.72225345
Cu       6.60370617       5.32613786       0.00304951
Cu       4.37809174       3.56153089       3.47269627
Cu       4.38608081       5.33862072       5.20318705
Cu       6.57915636       3.55977612       5.22612663
Cu       6.55649998       5.33664221       3.47833559
Cu       4.38772860       3.55047744       6.95974844
Cu       4.38832261       5.33117779       8.69183442
Cu       6.58423393       3.55420699       8.70559153
Cu       6.57034802       5.32778313       6.95981688
Cu       4.39250666       7.10910256       0.01042453
Cu       4.38792061       8.86929171       1.73309681
Cu       6.59549739       7.08947913       1.73156093
Cu       6.56393204       8.88291732       0.00352025
Cu       4.38824893       7.11185056       3.49683056
Cu       4.38860186       8.88225001       5.22367948
Cu       6.58828552       7.12086163       5.22345723
Cu       6.58064675       8.88340439       3.47971855
Cu       4.39002674       7.10222227       6.93688944
Cu       4.40134240       8.85841523       8.67566141
Cu       6.58674627       7.10309727       8.69749178
Cu       6.57887695       8.87613233       6.94099804
Cu       8.78197190       0.01073728       0.00326609
Cu       8.76706583       1.79025685       1.74100329
Cu      10.98617026       0.01468042       1.73843254
Cu      10.98114570       1.78077410       0.00688450
Cu       8.78090489      -0.00597438       3.47180543
Cu       8.76130896       1.78729145       5.21917454
Cu      10.95970550       0.00755883       5.20437654
Cu      10.97651601       1.78714809       3.47434121
Cu       8.75923445      -0.00083100       6.95573684
Cu       8.77074380       1.77793222       8.68789312
Cu      10.96836438       0.00592476       8.69374570
Cu      10.98435377       1.77942816       6.95503033
Cu       8.77563331       3.55097725      -0.00842874
Cu       8.75995559       5.32928113       1.75635975
Cu      10.94812776       3.57521764       1.74252616
Cu      10.95598093       5.33168351       0.00611779
Cu       8.79021192       3.54382842       3.47268172
Cu       8.77763507       5.32987739       5.21414782
Cu      10.97014858       3.55533052       5.21649624
Cu      10.97476590       5.34658310       3.46742652
Cu       8.78065863       3.54545637       6.94442811
Cu       8.79418773       5.33812722       8.67599024
Cu      10.97000659       3.56477912       8.68881818
Cu      10.98743148       5.31977395       6.95016514
Cu       8.78381046       7.09240147      -0.00745888
Cu       8.77915786       8.89882336       1.72463330
Cu      10.96308949       7.09870306       1.72870962
Cu      10.97474201       8.88625097      -0.01824526
Cu       8.78637960       7.10485663       3.46843612
Cu       8.75563622       8.88198617       5.19333214
Cu      10.98050110       7.10025199       5.20479742
Cu      10.98522124       8.89164856       3.47421143
Cu       8.76780423       7.09873536       6.93471398
Cu       8.76713493       8.87314506       8.69001924
Cu      10.96617210       7.11278424       8.66261621
Cu      10.96946306       8.87338586       6.94197551
