108
Lattice="13.801452454678703 0.0 0.0 0.0 13.111331478071616 0.0 0.0 0.0 10.582564156437476" Properties=species:S:1:pos:R:3 id=sample_001877 pbc="F F F"
Cu      -0.01544221      -0.02992625       0.00224062
Cu       0.00870301       2.20034652       1.77882727
Cu       2.30289201       0.01986746       1.76114648
Cu       2.31020699       2.19872684       0.01040056
Cu      -0.01054957       0.02028923       3.49726621
Cu      -0.00019606       2.21047312       5.27473121
Cu       2.28781855      -0.02207484       5.29473691
Cu       2.32975087       2.20246197       3.51866189
Cu      -0.01758937       0.00100439       7.07075503
Cu      -0.02049681       2.19900313       8.82282612
Cu       2.29603383       0.00166443       8.81420777
Cu       2.31808841       2.16274535       7.05329991
Cu       0.00318036       4.37663367       0.00770142
Cu      -0.00457911       6.55073313       1.76822867
Cu       2.29012944       4.37957101       1.76143481
Cu       2.28709916       6.53469069      -0.00295488
Cu       0.00494018       4.36127748       3.53410249
Cu       0.01505426       6.57463992       5.27556598
Cu       2.29246351       4.40206557       5.31895635
Cu       2.30356506       6.58250852       3.52897125
Cu       0.00707898       4.36255336       7.06988308
Cu      -0.01730563       6.55313295       8.82769251
Cu       2.30260318       4.37675978       8.82235283
Cu       2.30412533       6.55898248       7.05352174
Cu       0.00863804       8.74149837      -0.01853545
Cu       0.01240455      10.91274782       1.75942317
Cu       2.31069599       8.75352296       1.75244056
Cu       2.29242447      10.91094165      -0.02514761
Cu      -0.03264155       8.75347059       3.53833876
Cu       0.01786399      10.91226112       5.30850350
Cu       2.32694156       8.75530616       5.29436195
Cu       2.31449140      10.95522825       3.53520286
Cu       0.01649814       8.75248831       7.03248960
Cu       0.02162181      10.94335207       8.81764187
Cu       2.28846204       8.74503079       8.80469556
Cu       2.29718187      10.92883984       7.05731395
Cu       4.58540234      -0.01768268       0.03374255
Cu       4.59430554       2.16401274       1.76144869
Cu       6.88600708      -0.01709320       1.76820712
Cu       6.90645400       2.17317428       0.00188706
Cu       4.59173538       0.00746578       3.52391801
Cu       4.59840927       2.18057960       5.28614302
Cu       6.90522168       0.00780291       5.29459831
Cu       6.89940846       2.16774994       3.53045871
Cu       4.59964418      -0.00869925       7.04447635
Cu       4.59776743       2.18848835       8.82900258
Cu       6.91848422      -0.01711532       8.81151663
Cu       6.88025917       2.18179008       7.05454702
Cu       4.59115287       4.37620381      -0.00638959
Cu       4.60271244       6.55721408       1.75390858
Cu       6.87607598       4.36166741       1.75898571
Cu       6.90208234       6.54843753       0.00980388
Cu       4.58272290       4.35944350       3.51828563
Cu       4.61167114       6.55511806       5.28569591
Cu       6.93666121       4.36908074       5.31449205
Cu       6.92115029       6.52059965       3.53343493
Cu       4.58115482       4.36380439       7.07333598
Cu       4.57914050       6.54432460       8.82672216
Cu       6.89448660       4.37257870       8.82008907
Cu       6.89457938       6.54568955       7.06404004
Cu       4.60990040       8.72686178      -0.01807601
Cu       4.60213677      10.91416120       1.75604744
Cu       6.92275025       8.74610187       1.75230566
Cu       6.89148429      10.93880996       0.01567662
Cu       4.58528366       8.73924233       3.53660813
Cu       4.59188811      10.93697564       5.28896775
Cu       6.88590229       8.71583987       5.31863733
Cu       6.91518299      10.93339868       3.54073289
Cu       4.58928150       8.74546108       7.07008751
Cu       4.61873124      10.92619145       8.79539438
Cu       6.91948894       8.73753083       8.80869609
Cu       6.88556544      10.93171587       7.06727063
Cu       9.21012938       0.00816869       0.01279805
Cu       9.21140419       2.17627761       1.74583720
Cu      11.49629069      -0.01778686       1.76696206
Cu      11.53570242       2.17351844      -0.00172363
Cu       9.22222498      -0.00413955       3.50567256
Cu       9.19860926       2.16064509       5.29555024
Cu      11.51513316      -0.01327524       5.29888747
Cu      11.50515630       2.17975408       3.50729976
Cu       9.21125227       0.02433130       7.04494854
Cu       9.18538201       2.18421489       8.84152235
Cu      11.47164976       0.00168418       8.82476856
Cu      11.53220425       2.20174603       7.05531192
Cu       9.24614873       4.37778132      -0.00131791
Cu       9.18756802       6.55983479       1.80048121
Cu      11.50622241       4.39405476       1.75145355
Cu      11.49499723       6.58282652      -0.00241510
Cu       9.20080319       4.35493671       3.52612787
Cu       9.21983693       6.55863616       5.26947653
Cu      11.52715573       4.37542031       5.30382084
Cu      11.48844611       6.58509837       3.51103308
Cu       9.21568747       4.38017544       7.05629739
Cu       9.18703678       6.54590002       8.82414623
Cu      11.49295740       4.36780352       8.80867319
Cu      11.51912439       6.53712973       7.06637862
Cu       9.19346963       8.73996375       0.01114616
Cu       9.18269219      10.90812464       1.76936606
Cu      11.46737870       8.74095309       1.73145095
Cu      11.49037181      10.91180760       0.00467795
Cu       9.16720955       8.73873861       3.54667560
Cu       9.19449837      10.91916492       5.28667716
Cu      11.51192946       8.74596622       5.32163710
Cu      11.53210447      10.91749494       3.54621743
Cu       9.18226230       8.74734676       7.04719346
Cu       9.23076877      10.91726070       8.83246952
Cu      11.49486181       8.71694130       8.83995030
Cu      11.51163358      10.90975850       7.04935265
