500
Lattice="18.4343025733155 0.0 0.0 0.0 16.986109886153663 0.0 0.0 0.0 21.2872473249373" Properties=species:S:1:pos:R:3 id=sample_000976 pbc="F F F"
Cu       0.00713984       0.00129768       0.00667106
Cu       0.00349308       1.70343835       2.11138461
Cu       1.83580601       0.01262586       2.12813382
Cu       1.82839182       1.70079154      -0.00458628
Cu      -0.00200033      -0.01361428       4.26790082
Cu      -0.00763178       1.68449624       6.40471982
Cu       1.85667055      -0.00274598       6.37369309
Cu       1.83841956       1.69081631       4.26307889
Cu      -0.00691069       0.00022485       8.51754313
Cu       0.00246081       1.70433053      10.65482466
Cu       1.83960672      -0.00395965      10.63447928
Cu       1.82924053       1.68027411       8.52027420
Cu       0.00348732       0.00069774      12.78988518
Cu       0.00422163       1.69886103      14.88540095
Cu       1.84390622      -0.01309510      14.89713612
Cu       1.82039912       1.70464542      12.75947530
Cu      -0.01390090      -0.00860627      17.02538895
Cu      -0.00718664       1.69856926      19.16911336
Cu       1.84431263       0.02120606      19.15532544
Cu       1.83053552       1.69736599      17.03847555
Cu      -0.00733285       3.40565372       0.02830085
Cu       0.00109348       5.09248960       2.14251507
Cu       1.83947633       3.40540566       2.13070550
Cu       1.85034310       5.08260831      -0.00266876
Cu       0.00805586       3.39427987       4.25391296
Cu      -0.00829991       5.08638993       6.39435668
Cu       1.82893621       3.39198277       6.37438595
Cu       1.84063431       5.06802092       4.24010926
Cu       0.02924988       3.38508471       8.50561220
Cu       0.01648371       5.09180697      10.63981973
Cu       1.84672841       3.40562543      10.65121693
Cu       1.85245109       5.10797399       8.51181518
Cu       0.00652114       3.39040964      12.76714277
Cu       0.00559899       5.09972390      14.90868522
Cu       1.84237044       3.40441380      14.88846343
Cu       1.83607991       5.09965143      12.77423700
Cu       0.00332824       3.39812353      17.02158665
Cu      -0.01253110       5.09293763      19.17432748
Cu       1.83454939       3.40028134      19.17787836
Cu       1.82414275       5.09782383      17.01045207
Cu      -0.00167199       6.78215714      -0.01487372
Cu       0.00509816       8.49161878       2.12237311
Cu       1.84658749       6.79813778       2.12124783
Cu       1.83450373       8.47326995       0.00384753
Cu      -0.01171054       6.78197360       4.26423200
Cu       0.01687696       8.49068652       6.38127842
Cu       1.85198378       6.78265883       6.39423065
Cu       1.84098058       8.49842470       4.25156329
Cu      -0.00437161       6.78018738       8.50981098
Cu       0.00052708       8.48297602      10.63249556
Cu       1.84694803       6.79233834      10.62770110
Cu       1.85346714       8.48577896       8.50618167
Cu      -0.00039164       6.79662348      12.77846170
Cu      -0.00889997       8.50600127      14.90770186
Cu       1.83362175       6.79891997      14.91608661
Cu       1.86668346       8.49887542      12.77538686
Cu      -0.02105158       6.80105632      17.02418772
Cu      -0.00803536       8.48199542      19.17421577
Cu       1.84779626       6.78626619      19.14555551
Cu       1.85227801       8.47163038      17.02504456
Cu       0.00630339      10.17795451      -0.00386157
Cu       0.00909567      11.88397773       2.13148755
Cu       1.85292875      10.19497292       2.12293512
Cu       1.84040677      11.90456667      -0.00293032
Cu      -0.00604635      10.18580671       4.27013348
Cu       0.00947889      11.89350716       6.38578999
Cu       1.85043911      10.18472672       6.38719693
Cu       1.84773052      11.87352359       4.25065833
Cu      -0.00748639      10.18242984       8.51118353
Cu      -0.00216199      11.90626214      10.63502793
Cu       1.84644817      10.21482297      10.64509648
Cu       1.82220986      11.88825032       8.52114161
Cu       0.00990073      10.20776228      12.77277904
Cu      -0.01610999      11.87879580      14.90121216
Cu       1.84123575      10.18768725      14.91221481
Cu       1.84009469      11.89455183      12.76999092
Cu       0.01644091      10.20817741      17.02585060
Cu       0.00229918      11.90227778      19.15961923
Cu       1.84860553      10.18458806      19.14884195
Cu       1.84965995      11.90031768      17.02287578
Cu       0.01627225      13.57575082      -0.00067344
Cu       0.00228054      15.30167174       2.12163193
Cu       1.83023017      13.58180194       2.13423704
Cu       1.85049418      15.29460731      -0.01188598
Cu      -0.01101142      13.58361089       4.24819683
Cu      -0.00079498      15.29019588       6.38717462
Cu       1.84830347      13.59003332       6.39613978
Cu       1.84229465      15.27959707       4.25711736
Cu      -0.00521151      13.56348449       8.51210593
Cu       0.01213394      15.29367819      10.64644453
Cu       1.84606509      13.60334060      10.64373524
Cu       1.84351348      15.29392585       8.50304063
Cu       0.02318169      13.57358927      12.75023554
Cu       0.02855424      15.28728673      14.89275288
Cu       1.84108890      13.58706319      14.87254025
Cu       1.84301235      15.29823104      12.75904437
Cu      -0.00582901      13.58355710      17.03421094
Cu       0.01310097      15.29192284      19.16533161
Cu       1.85973131      13.57514668      19.15119341
Cu       1.85096860      15.29308107      17.03424525
Cu       3.69247743      -0.00093668       0.01523656
Cu       3.67491376       1.70443778       2.12474882
Cu       5.52573982       0.00624033       2.14306445
Cu       5.51615310       1.70581182       0.00868331
Cu       3.68205713      -0.00847175       4.25595303
Cu       3.68848535       1.70239356       6.40214488
Cu       5.51280814      -0.00869802       6.39153277
Cu       5.52746942       1.70732192       4.26137539
Cu       3.68002756       0.00460691       8.50847892
Cu       3.69139484       1.70461055      10.63373730
Cu       5.51704948      -0.01152864      10.64383405
Cu       5.52720801       1.71256418       8.51079999
Cu       3.67456532      -0.01210000      12.76931029
Cu       3.69164944       1.70366351      14.91147346
Cu       5.53580728       0.00248001      14.90413671
Cu       5.52776256       1.70167904      12.76827999
Cu       3.68111996       0.00974914      17.01565808
Cu       3.69716472       1.69560159      19.15509933
Cu       5.52743910       0.00148189      19.15386126
Cu       5.54268539       1.68493508      17.04665950
Cu       3.70651205       3.38863985       0.00475096
Cu       3.68476642       5.09797048       2.13337029
Cu       5.52302259       3.40545478       2.12598220
Cu       5.51823370       5.09871521      -0.01014014
Cu       3.69520068       3.38940744       4.26671250
Cu       3.67716223       5.10161964       6.40323459
Cu       5.51936793       3.38520828       6.37414262
Cu       5.50963240       5.07956338       4.26280457
Cu       3.66735833       3.39465537       8.51814355
Cu       3.67999921       5.09864863      10.63300749
Cu       5.52011812       3.37904277      10.64073783
Cu       5.53308323       5.09645514       8.50171260
Cu       3.69473750       3.40000909      12.76360928
Cu       3.68769370       5.08869713      14.88525207
Cu       5.53571452       3.40496693      14.90102050
Cu       5.52807063       5.09334319      12.77454050
Cu       3.68301720       3.39351606      17.02983021
Cu       3.70356224       5.11101369      19.16615588
Cu       5.52263016       3.39287802      19.16862135
Cu       5.54850119       5.10408306      17.04341623
Cu       3.68471701       6.78327413       0.00134621
Cu       3.66669666       8.48461371       2.12746579
Cu       5.51682258       6.78512355       2.11835422
Cu       5.53184887       8.49565057       0.00837099
Cu       3.68822731       6.78885876       4.25302057
Cu       3.69637767       8.49372930       6.36523798
Cu       5.52887704       6.77669168       6.38906204
Cu       5.53024413       8.51357896       4.24934925
Cu       3.69797065       6.79068207       8.52144096
Cu       3.66748166       8.48142976      10.66462436
Cu       5.53457416       6.79882784      10.63886157
Cu       5.53623160       8.49203216       8.52193413
Cu       3.71576541       6.79168858      12.76203390
Cu       3.70897521       8.47644613      14.89881315
Cu       5.52523273       6.80060491      14.90609356
Cu       5.53571973       8.49805045      12.78756628
Cu       3.68993757       6.79457566      17.04426455
Cu       3.68819049       8.50557224      19.14428360
Cu       5.52749793       6.79239296      19.15621364
Cu       5.52874770       8.49325840      17.02828738
Cu       3.69955169      10.18970796       0.00662521
Cu       3.69226786      11.88961444       2.15216308
Cu       5.51991115      10.19168892       2.14477393
Cu       5.51979630      11.88207911       0.00744593
Cu       3.68915737      10.20510720       4.25717129
Cu       3.67316365      11.88751230       6.38278547
Cu       5.53208814      10.19042658       6.36795651
Cu       5.53068295      11.87255036       4.24613845
Cu       3.68381632      10.18966864       8.50568734
Cu       3.68285555      11.90777968      10.65051767
Cu       5.52305910      10.20823780      10.64324784
Cu       5.53086380      11.89141757       8.50799352
Cu       3.69358423      10.21652124      12.78297808
Cu       3.68666922      11.90017930      14.89927526
Cu       5.53958822      10.17791621      14.91348175
Cu       5.52101933      11.89486049      12.77280132
Cu       3.68104753      10.18343028      17.02941628
Cu       3.70146939      11.89379851      19.15821100
Cu       5.54340368      10.19124113      19.15419392
Cu       5.52802516      11.89039445      17.01292942
Cu       3.68920560      13.59483047      -0.00548410
Cu       3.69281051      15.29295767       2.12869723
Cu       5.52310988      13.57294543       2.13139020
Cu       5.52704783      15.27704592      -0.00363650
Cu       3.68546636      13.58186367       4.26540411
Cu       3.67447658      15.29518694       6.38686780
Cu       5.53388401      13.56911218       6.37985053
Cu       5.51901334      15.28148485       4.25836032
Cu       3.66668988      13.58864575       8.52274505
Cu       3.69556380      15.29511947      10.65188612
Cu       5.52156280      13.59040538      10.65286041
Cu       5.51408050      15.30057634       8.51262149
Cu       3.70580841      13.58885347      12.75900963
Cu       3.69842524      15.29291678      14.90079132
Cu       5.53394952      13.58061185      14.88923507
Cu       5.54404012      15.28631066      12.77212392
Cu       3.66507231      13.57767654      17.03079170
Cu       3.67660173      15.29310272      19.15185966
Cu       5.52500222      13.59730010      19.15832521
Cu       5.51805983      15.28432658      17.03472552
Cu       7.36954916       0.00270651      -0.00580821
Cu       7.36661406       1.69139788       2.13399499
Cu       9.22052984       0.01581387       2.13482856
Cu       9.21171450       1.72049158      -0.00109099
Cu       7.38485678       0.00207492       4.25103026
Cu       7.37898454       1.70431331       6.36631631
Cu       9.23089189      -0.00176875       6.38324981
Cu       9.21651884       1.70845070       4.25681485
Cu       7.36846942      -0.00608549       8.51532879
Cu       7.37283638       1.70397450      10.63277413
Cu       9.21848232      -0.00292183      10.64616401
Cu       9.20918830       1.70939700       8.50801387
Cu       7.36261168       0.00232682      12.76529125
Cu       7.38035001       1.69570809      14.90967664
Cu       9.21340962      -0.00684829      14.89185578
Cu       9.22126597       1.69727847      12.75493651
Cu       7.38627885       0.02544050      17.01821312
Cu       7.37569580       1.69698083      19.15284593
Cu       9.21590580      -0.00655856      19.15804666
Cu       9.20888453       1.70194109      17.02109509
Cu       7.36476150       3.40527219      -0.00236011
Cu       7.39482160       5.09345868       2.11687862
Cu       9.23182867       3.40279097       2.12727656
Cu       9.21313473       5.10067821      -0.00535059
Cu       7.35468660       3.39413017       4.25255415
Cu       7.37319795       5.10140726       6.37823549
Cu       9.22152859       3.39077541       6.41115864
Cu       9.21808614       5.10285912       4.25663907
Cu       7.38210938       3.39101769       8.51940747
Cu       7.37104934       5.07800335      10.64869156
Cu       9.20775296       3.40849041      10.62891000
Cu       9.22098228       5.09787602       8.52360265
Cu       7.37539144       3.40701255      12.76557723
Cu       7.37246281       5.08505264      14.91990523
Cu       9.21552478       3.39027869      14.91036739
Cu       9.20949955       5.07710916      12.77494555
Cu       7.37070577       3.40154823      17.03209367
Cu       7.37078884       5.09630629      19.15790084
Cu       9.22342832       3.37969181      19.16501458
Cu       9.21464656       5.09532002      17.03140373
Cu       7.37295944       6.79835406       0.01767819
Cu       7.38068287       8.48492622       2.12327196
Cu       9.22842742       6.79770175       2.13934997
Cu       9.20846019       8.48363504       0.00423499
Cu       7.37899876       6.78902834       4.24072494
Cu       7.37000757       8.50102823       6.38406198
Cu       9.21588173       6.79109095       6.37612462
Cu       9.18748440       8.49138705       4.26349296
Cu       7.37469048       6.80740363       8.50787900
Cu       7.37889440       8.47542009      10.63998913
Cu       9.20414617       6.78794412      10.64063816
Cu       9.21777286       8.48174585       8.50873987
Cu       7.36057131       6.78922281      12.77782778
Cu       7.36828927       8.47478630      14.89591275
Cu       9.20154437       6.81173001      14.90263923
Cu       9.22635949       8.48522110      12.79864894
Cu       7.37917444       6.78268521      17.02958955
Cu       7.37071574       8.50942260      19.17869771
Cu       9.22490277       6.79902095      19.13705132
Cu       9.22425998       8.50713486      17.01954587
Cu       7.36633360      10.18752874       0.00560979
Cu       7.36557887      11.91930210       2.13094384
Cu       9.22169469      10.17299490       2.12673575
Cu       9.20642892      11.89135403      -0.00091578
Cu       7.35917829      10.19065342       4.24508848
Cu       7.37382697      11.89143388       6.38359750
Cu       9.19969675      10.18109896       6.36869277
Cu       9.22201046      11.89159024       4.25007441
Cu       7.36952214      10.17974468       8.52069038
Cu       7.35688945      11.89675865      10.66832124
Cu       9.22050665      10.19245910      10.65233373
Cu       9.21786559      11.90751323       8.51595552
Cu       7.38268078      10.18509057      12.77866453
Cu       7.37038885      11.88963999      14.88718661
Cu       9.21080574      10.17749207      14.90577638
Cu       9.21413246      11.88290077      12.76223678
Cu       7.37656957      10.18927463      17.04891712
Cu       7.37573375      11.91195982      19.15836186
Cu       9.21416848      10.18260298      19.14852785
Cu       9.21077093      11.88800701      17.03294523
Cu       7.37740395      13.58570469      -0.00283991
Cu       7.35608184      15.29541113       2.13288167
Cu       9.22041176      13.58295596       2.12704646
Cu       9.20782372      15.27709358      -0.00245096
Cu       7.36227071      13.59399985       4.25526186
Cu       7.37211037      15.28442683       6.37041811
Cu       9.20565502      13.58130188       6.37194385
Cu       9.20537186      15.27430788       4.24061013
Cu       7.36679016      13.60419703       8.49586776
Cu       7.36805449      15.30239928      10.65126717
Cu       9.22784205      13.60585568      10.61945154
Cu       9.24334520      15.27954113       8.51866801
Cu       7.37873670      13.60738672      12.77699722
Cu       7.35662703      15.28263899      14.91474726
Cu       9.21660030      13.60177476      14.88654031
Cu       9.21359808      15.29450641      12.78290153
Cu       7.38133410      13.57656699      17.02536526
Cu       7.37198857      15.27532662      19.15997702
Cu       9.22567433      13.59054273      19.16842338
Cu       9.20335842      15.27707468      17.03514431
Cu      11.06529647      -0.00875145      -0.00534871
Cu      11.04594253       1.70855064       2.11865465
Cu      12.91450285       0.00142065       2.13161695
Cu      12.89148849       1.69205483       0.01920972
Cu      11.06780058       0.00332232       4.26034293
Cu      11.05846011       1.71114370       6.38644385
Cu      12.89471316       0.01391636       6.37711575
Cu      12.90232743       1.68959813       4.25986197
Cu      11.07035986       0.00228227       8.52674850
Cu      11.05621850       1.69056268      10.65076436
Cu      12.93647837      -0.00967036      10.64791135
Cu      12.91293474       1.67777253       8.50886887
Cu      11.07556888      -0.00447679      12.77370923
Cu      11.05043933       1.70756790      14.88859970
Cu      12.90563202      -0.00088443      14.89110197
Cu      12.92043109       1.69957109      12.76797968
Cu      11.06145980       0.00366247      17.03510597
Cu      11.05996061       1.69547015      19.16433255
Cu      12.91685526       0.00824316      19.15096923
Cu      12.90362772       1.68292250      17.03710878
Cu      11.06770976       3.40642636       0.00057230
Cu      11.06511743       5.09320474       2.13860192
Cu      12.91432833       3.39565526       2.14266160
Cu      12.89787694       5.11638746      -0.01063973
Cu      11.07085517       3.40034881       4.26094167
Cu      11.06365009       5.10595806       6.37799802
Cu      12.89195674       3.38721048       6.38644948
Cu      12.91397910       5.09161665       4.27544864
Cu      11.04905027       3.40245746       8.52463271
Cu      11.07046400       5.09656889      10.65886684
Cu      12.90676522       3.39244712      10.63406383
Cu      12.91610143       5.09066674       8.50777053
Cu      11.06746316       3.39186502      12.77569281
Cu      11.05495779       5.09248819      14.89956915
Cu      12.89904708       3.39373488      14.89350028
Cu      12.90072490       5.10031505      12.78093523
Cu      11.03113584       3.38209690      17.02300433
Cu      11.05654324       5.09088986      19.15089574
Cu      12.88958962       3.40543772      19.15769015
Cu      12.89633413       5.08491368      17.00920048
Cu      11.05347188       6.78572437       0.00692042
Cu      11.07653794       8.49092998       2.12585608
Cu      12.90896251       6.79569700       2.10376981
Cu      12.89125453       8.48650286      -0.00588915
Cu      11.06899765       6.77450109       4.24399370
Cu      11.06586414       8.50081000       6.38433399
Cu      12.91100287       6.78102444       6.38834737
Cu      12.89115691       8.50034211       4.23919761
Cu      11.07467424       6.80509386       8.51599308
Cu      11.06086879       8.49494456      10.66087859
Cu      12.89591223       6.79568514      10.64763230
Cu      12.90169183       8.49959724       8.50485252
Cu      11.04874496       6.79786359      12.78129661
Cu      11.05714321       8.49395784      14.89978219
Cu      12.91081313       6.77547717      14.89749398
Cu      12.90560831       8.48061186      12.76969309
Cu      11.06316187       6.77852681      17.01520941
Cu      11.06598065       8.48479833      19.16143008
Cu      12.91531751       6.79218781      19.14779894
Cu      12.92491217       8.49026228      17.03629889
Cu      11.05553370      10.20236231      -0.00072348
Cu      11.04690447      11.87696700       2.13487031
Cu      12.90972590      10.18453335       2.13399396
Cu      12.91586535      11.88784223      -0.00768871
Cu      11.06044917      10.19220492       4.25922073
Cu      11.05013167      11.90208520       6.38136928
Cu      12.91472983      10.18746438       6.38520165
Cu      12.90135503      11.89125737       4.24298196
Cu      11.05625635      10.19414699       8.52041754
Cu      11.05368111      11.88980557      10.64798042
Cu      12.89323953      10.19018409      10.64491453
Cu      12.89342291      11.88960767       8.50434138
Cu      11.06607524      10.18164906      12.76540175
Cu      11.04978596      11.87310079      14.89864495
Cu      12.90474382      10.19912546      14.89754549
Cu      12.89263725      11.89426665      12.76668712
Cu      11.05824391      10.19527481      16.99625844
Cu      11.05604195      11.88590384      19.16983180
Cu      12.89059374      10.20740459      19.15811973
Cu      12.90950837      11.88833844      17.02819872
Cu      11.06670744      13.59454751       0.01019400
Cu      11.05745025      15.29022858       2.11951789
Cu      12.90086732      13.57644035       2.12972087
Cu      12.91248335      15.30084852       0.01294145
Cu      11.04879442      13.59152278       4.25465999
Cu      11.06644664      15.27712341       6.39714463
Cu      12.90147801      13.60410303       6.38295949
Cu      12.90441756      15.27790984       4.25179513
Cu      11.05949427      13.58593909       8.50152329
Cu      11.06655155      15.28916862      10.64602448
Cu      12.88970750      13.59634135      10.63444331
Cu      12.88073403      15.29074855       8.51411980
Cu      11.07708397      13.58508175      12.78212477
Cu      11.06509087      15.26176740      14.90205487
Cu      12.91805272      13.58370273      14.88383863
Cu      12.90805809      15.29006065      12.77562639
Cu      11.06429412      13.60377031      17.02666287
Cu      11.06354342      15.30013572      19.16051917
Cu      12.91917644      13.57858061      19.16289718
Cu      12.91987216      15.29653813      17.01560340
Cu      14.74779716       0.00534864       0.00062468
Cu      14.74601484       1.70527266       2.14164661
Cu      16.58696359       0.01320096       2.12889802
Cu      16.58162996       1.70144340      -0.00493424
Cu      14.74141760      -0.01204879       4.22656602
Cu      14.77246165       1.70619508       6.38569483
Cu      16.60298176      -0.01604374       6.38803775
Cu      16.58404064       1.70323659       4.24748811
Cu      14.74542572      -0.01087324       8.52920683
Cu      14.75256137       1.70122411      10.64071520
Cu      16.59976214      -0.01724859      10.64257301
Cu      16.58571273       1.70338941       8.52857092
Cu      14.75358588       0.00526993      12.76821032
Cu      14.75430899       1.70869829      14.90547300
Cu      16.59477469       0.00597682      14.89366738
Cu      16.60813400       1.70543183      12.76641646
Cu      14.75678622       0.00554854      17.02802876
Cu      14.74036262       1.70553879      19.14114576
Cu      16.58272515      -0.00049405      19.16110567
Cu      16.59554724       1.71866662      17.01888232
Cu      14.73123519       3.41399197       0.00328350
Cu      14.75403158       5.10567655       2.13254163
Cu      16.60147370       3.38206007       2.14515530
Cu      16.59990886       5.09739457      -0.01113345
Cu      14.75636194       3.40243965       4.27005558
Cu      14.75373892       5.09818391       6.36740003
Cu      16.56600919       3.40836514       6.39579821
Cu      16.58298062       5.10335566       4.25767670
Cu      14.73730861       3.39630687       8.51164998
Cu      14.75523672       5.09270264      10.65261508
Cu      16.60755105       3.40063291      10.65427965
Cu      16.60019239       5.10518083       8.51527291
Cu      14.75343959       3.39544922      12.77383571
Cu      14.74031832       5.09737814      14.90110571
Cu      16.57049112       3.40029173      14.90610861
Cu      16.60949815       5.09220643      12.77029587
Cu      14.74381062       3.40245584      17.03679251
Cu      14.74416047       5.11371859      19.17042304
Cu      16.58710062       3.39568724      19.16320923
Cu      16.60047691       5.09634828      17.00699952
Cu      14.76099445       6.80289856       0.00096357
Cu      14.74300675       8.48173805       2.11351513
Cu      16.60199184       6.78791290       2.12264581
Cu      16.58161209       8.49221673       0.02600528
Cu      14.76291978       6.79446939       4.24522656
Cu      14.76043591       8.47750242       6.39580800
Cu      16.58127088       6.78417598       6.38703938
Cu      16.57795493       8.49698455       4.25389589
Cu      14.73621469       6.80425007       8.50749785
Cu      14.74427066       8.49047478      10.64266944
Cu      16.59706391       6.81060227      10.66324832
Cu      16.59490341       8.49484956       8.50600425
Cu      14.75747332       6.79983333      12.76196455
Cu      14.75155596       8.49518436      14.89927070
Cu      16.58576049       6.80598130      14.89941705
Cu      16.58614801       8.48657178      12.78016122
Cu      14.74838051       6.79368684      17.03617606
Cu      14.74063118       8.50657779      19.15715807
Cu      16.58765433       6.78138647      19.15558789
Cu      16.60009176       8.48608399      17.03141609
Cu      14.74101163      10.19091909       0.01150581
Cu      14.75784255      11.89751330       2.12355922
Cu      16.56538251      10.18921324       2.13226210
Cu      16.58266283      11.89173309      -0.00685075
Cu      14.74861952      10.18697492       4.25566591
Cu      14.74884796      11.88486452       6.39191419
Cu      16.58096383      10.19092386       6.39117689
Cu      16.58663358      11.88873239       4.24996646
Cu      14.75649148      10.18772026       8.51309663
Cu      14.75817733      11.89436513      10.64089739
Cu      16.59862543      10.17661466      10.63349239
Cu      16.58011025      11.90689893       8.52032830
Cu      14.74061909      10.19064727      12.77623908
Cu      14.74605633      11.88298733      14.89129180
Cu      16.59373583      10.18347148      14.88775234
Cu      16.60956480      11.89706442      12.77928433
Cu      14.75673720      10.20003489      17.03443365
Cu      14.74435706      11.91069476      19.14681435
Cu      16.58333454      10.20320639      19.16355313
Cu      16.58915455      11.90920674      17.03767080
Cu      14.75569199      13.58354087      -0.00194521
Cu      14.74634833      15.29107623       2.11498863
Cu      16.58887190      13.57427998       2.11596817
Cu      16.59432488      15.29427610      -0.00583362
Cu      14.74203963      13.57378524       4.24847488
Cu      14.72915003      15.29231923       6.39404739
Cu      16.59631999      13.61190081       6.37468852
Cu      16.59700177      15.29908245       4.25551620
Cu      14.73710551      13.58813930       8.50919099
Cu      14.72864083      15.28223021      10.63802350
Cu      16.57604918      13.60728912      10.65022268
Cu      16.59876744      15.29145842       8.51089821
Cu      14.74431145      13.58712567      12.77016327
Cu      14.74386351      15.29160862      14.89227404
Cu      16.60236993      13.60057138      14.89747627
Cu      16.58909258      15.29193768      12.75376849
Cu      14.74952925      13.58366955      17.04106255
Cu      14.74190111      15.28006298      19.13844198
Cu      16.58831729      13.58992871      19.15211990
Cu      16.58365597      15.27844239      17.02087277
