500
Lattice="17.744096872489937 0.0 0.0 0.0 17.210683793307766 0.0 0.0 0.0 13.815074212195888" Properties=species:S:1:pos:R:3 id=sample_000901 pbc="F F F"
Fe       0.00370473       0.00534237       0.02900895
Fe      -0.00432273       1.72381806       1.39578779
Fe       1.77845024      -0.00051597       1.35402974
Fe       1.77259990       1.71244274       0.01221270
Fe      -0.00216253      -0.00199300       2.78190241
Fe       0.00351113       1.73311620       4.12277677
Fe       1.76882789      -0.00406093       4.14517174
Fe       1.78673055       1.71224305       2.77657889
Fe       0.01558289      -0.01012120       5.51414321
Fe      -0.01098144       1.71657553       6.87613373
Fe       1.78319447      -0.00351883       6.90383503
Fe       1.77961059       1.72920816       5.52047833
Fe       0.01107449       0.00637742       8.29470457
Fe      -0.00056264       1.72019505       9.67162791
Fe       1.78375865      -0.00667047       9.66865109
Fe       1.78818748       1.71800725       8.28746027
Fe       0.00004314       0.00956589      11.04321537
Fe       0.00180048       1.70915628      12.42763131
Fe       1.75619747      -0.01040574      12.41307494
Fe       1.78415877       1.71415996      11.05636521
Fe       0.00593123       3.43342396       0.01040204
Fe      -0.00519474       5.17745766       1.37958593
Fe       1.76528503       3.44054262       1.36864086
Fe       1.78376026       5.14135421      -0.01372127
Fe      -0.00702284       3.43765487       2.75872497
Fe      -0.00238591       5.16774272       4.15210269
Fe       1.76693034       3.43773321       4.13447119
Fe       1.78081342       5.15316404       2.74072491
Fe      -0.00881953       3.43454561       5.52353615
Fe       0.00393561       5.17864416       6.88772424
Fe       1.76425896       3.44406286       6.91945257
Fe       1.77918181       5.16642004       5.53562626
Fe       0.00141842       3.43659245       8.28777496
Fe       0.01724724       5.14870567       9.66577940
Fe       1.77330013       3.44718904       9.68041557
Fe       1.75928246       5.18063683       8.29253424
Fe      -0.00066433       3.43367949      11.06575672
Fe      -0.02188649       5.15890605      12.42711440
Fe       1.78291317       3.47184159      12.41968870
Fe       1.76938404       5.15700372      11.06261800
Fe      -0.00086589       6.88828790      -0.00378805
Fe       0.00680526       8.60862417       1.39375986
Fe       1.77085633       6.88750804       1.38710427
Fe       1.79756034       8.60483684       0.00163578
Fe      -0.02106327       6.88510529       2.75440129
Fe      -0.01224561       8.61692691       4.14751969
Fe       1.78694468       6.88332135       4.14670732
Fe       1.77062220       8.59218431       2.75944039
Fe      -0.00118162       6.89235814       5.51955615
Fe      -0.00522004       8.60967788       6.92852241
Fe       1.75985839       6.88995192       6.89192665
Fe       1.76369990       8.61399689       5.53483204
Fe      -0.00133331       6.88990638       8.27042403
Fe      -0.01153980       8.61265990       9.65682861
Fe       1.76518473       6.89440041       9.65826709
Fe       1.77301883       8.61616014       8.28357604
Fe      -0.00462123       6.88261296      11.04178266
Fe       0.01216966       8.60717376      12.44120827
Fe       1.76762924       6.90632249      12.43147898
Fe       1.77947835       8.59917057      11.04972463
Fe      -0.00783913      10.33629500       0.00853908
Fe       0.01032240      12.04810745       1.38635588
Fe       1.76687409      10.32840864       1.39181391
Fe       1.77351176      12.06920332      -0.00617072
Fe       0.00132331      10.33149753       2.75665001
Fe       0.00995432      12.05041545       4.13407319
Fe       1.77023876      10.33713849       4.11677137
Fe       1.78671031      12.05458170       2.77407227
Fe      -0.00540488      10.31737556       5.53559285
Fe       0.01801759      12.03463600       6.91085022
Fe       1.77969986      10.33729433       6.90606773
Fe       1.77111514      12.05292008       5.52393695
Fe       0.01032971      10.32118889       8.29604826
Fe       0.00173376      12.04870085       9.67577097
Fe       1.76285053      10.33805583       9.67085817
Fe       1.78730289      12.04847140       8.28340902
Fe       0.00972981      10.31757517      11.02511688
Fe       0.00276424      12.04832853      12.43546111
Fe       1.78056735      10.33659300      12.43341352
Fe       1.76723115      12.05866435      11.07452936
Fe       0.00289773      13.77211001      -0.00575174
Fe      -0.00266266      15.50137694       1.37416189
Fe       1.78064658      13.79310242       1.37470349
Fe       1.76268354      15.48318339      -0.00765246
Fe      -0.00955784      13.77706855       2.76159851
Fe      -0.00937871      15.48082868       4.13852782
Fe       1.76673382      13.77230769       4.14983245
Fe       1.76397536      15.49880635       2.76042330
Fe       0.00180646      13.77036623       5.52304969
Fe       0.00082014      15.48121251       6.90136312
Fe       1.76416765      13.75231630       6.90144682
Fe       1.76870189      15.50272817       5.53063988
Fe      -0.01085736      13.77146140       8.28045256
Fe      -0.01057002      15.47743284       9.68109738
Fe       1.76535360      13.77726254       9.66499746
Fe       1.76550164      15.50047293       8.30665398
Fe       0.01060196      13.77371655      11.06158496
Fe      -0.00260583      15.50417193      12.42184009
Fe       1.77272062      13.76252669      12.42356140
Fe       1.76901738      15.49568139      11.06274371
Fe       3.55232846       0.00298818       0.00853542
Fe       3.55352778       1.71638680       1.37346125
Fe       5.31328068      -0.01011942       1.38613951
Fe       5.31376837       1.73022545       0.00144593
Fe       3.54723950       0.00260788       2.76457090
Fe       3.55007489       1.70710554       4.14087960
Fe       5.31308760      -0.00895935       4.15533057
Fe       5.32887907       1.71948116       2.76253951
Fe       3.55528335       0.01173924       5.52644734
Fe       3.54346532       1.71623892       6.89006609
Fe       5.30972011      -0.00765497       6.90807515
Fe       5.32545550       1.73066983       5.51419232
Fe       3.54016560       0.02244414       8.28493146
Fe       3.53886673       1.70935616       9.67077444
Fe       5.33722693      -0.00636116       9.66868184
Fe       5.32580487       1.73043343       8.30207552
Fe       3.53723722      -0.00606901      11.06347882
Fe       3.54508732       1.72338002      12.43779234
Fe       5.32341860       0.00378726      12.42388745
Fe       5.30558517       1.70172419      11.08154739
Fe       3.53082109       3.45253043      -0.01712277
Fe       3.55946259       5.18266837       1.38514206
Fe       5.34254662       3.41479981       1.37809321
Fe       5.31246386       5.16580647      -0.01170553
Fe       3.56761171       3.43847627       2.76640111
Fe       3.55816483       5.17768446       4.14096068
Fe       5.31327977       3.44642078       4.15832605
Fe       5.32719492       5.17979673       2.77919555
Fe       3.56195325       3.41264643       5.52152767
Fe       3.54494539       5.17315580       6.90612341
Fe       5.33422643       3.42749657       6.90946322
Fe       5.31478931       5.15844516       5.52145291
Fe       3.54146156       3.45698901       8.27875386
Fe       3.55995779       5.17780041       9.64650590
Fe       5.32341357       3.43318432       9.66792409
Fe       5.32270789       5.16360830       8.30435370
Fe       3.54677736       3.44766528      11.05551506
Fe       3.54325698       5.16236166      12.44229273
Fe       5.31977495       3.43102173      12.42885269
Fe       5.30988960       5.14825026      11.04059231
Fe       3.55800928       6.89080916       0.00532637
Fe       3.55101549       8.59574380       1.37776369
Fe       5.32147693       6.88370544       1.38035090
Fe       5.33204658       8.60419198       0.00224376
Fe       3.54501668       6.88706299       2.76029954
Fe       3.54763024       8.61210891       4.13000830
Fe       5.32226603       6.88714178       4.14554958
Fe       5.32155282       8.60746697       2.76808808
Fe       3.55916487       6.86424385       5.53223783
Fe       3.53853530       8.58981237       6.89973234
Fe       5.30873684       6.87380204       6.89999966
Fe       5.32388402       8.59762918       5.52169139
Fe       3.54142445       6.87755112       8.26937081
Fe       3.53781804       8.60910390       9.67849724
Fe       5.30925849       6.89589501       9.66156918
Fe       5.33091056       8.60074489       8.29958187
Fe       3.55321588       6.89566603      11.05017271
Fe       3.54887938       8.60874285      12.43807931
Fe       5.32446182       6.87990990      12.44903165
Fe       5.30663354       8.60721132      11.04491134
Fe       3.55557975      10.33311879      -0.01179168
Fe       3.52956717      12.05371171       1.37044631
Fe       5.31096605      10.31261747       1.38410756
Fe       5.32073565      12.04713340       0.00633275
Fe       3.55952197      10.32468191       2.75250783
Fe       3.54283715      12.05498386       4.15537298
Fe       5.34415314      10.33689366       4.15032877
Fe       5.31658161      12.06340536       2.76119154
Fe       3.55489720      10.31327986       5.51458105
Fe       3.56115140      12.05796587       6.91338300
Fe       5.29597522      10.33685938       6.90051404
Fe       5.31916550      12.04883277       5.52670552
Fe       3.54677095      10.32744213       8.30662184
Fe       3.53675550      12.05578688       9.65254529
Fe       5.30742587      10.32675309       9.68225488
Fe       5.32277131      12.04594984       8.28546955
Fe       3.55841483      10.34435564      11.04927823
Fe       3.55654059      12.05055405      12.43826015
Fe       5.30904041      10.31947399      12.45284266
Fe       5.32984618      12.04900070      11.07216405
Fe       3.54634700      13.76906303      -0.00144287
Fe       3.55402534      15.50407761       1.40225873
Fe       5.34045712      13.75105742       1.37807948
Fe       5.33103597      15.50438662      -0.00998533
Fe       3.55470451      13.77611481       2.77079666
Fe       3.56135091      15.49636659       4.13831190
Fe       5.32308952      13.77704758       4.13472252
Fe       5.32525842      15.49782615       2.76181138
Fe       3.54360870      13.77432569       5.53400166
Fe       3.54676221      15.48814372       6.90346827
Fe       5.31393885      13.75832406       6.92275596
Fe       5.31838543      15.49701075       5.52685627
Fe       3.55546878      13.78436714       8.28240445
Fe       3.53257049      15.48342760       9.67432981
Fe       5.35275087      13.77581017       9.67915419
Fe       5.31847852      15.51711406       8.26891454
Fe       3.55174309      13.75004410      11.04659574
Fe       3.55639709      15.50230362      12.43629366
Fe       5.32992449      13.76921300      12.43496393
Fe       5.32639088      15.49462595      11.05617588
Fe       7.08738040       0.00573355       0.00157890
Fe       7.08902402       1.70321500       1.38404511
Fe       8.86832212       0.00039081       1.37054177
Fe       8.87050995       1.72308576      -0.00505159
Fe       7.09657090       0.01122991       2.75033580
Fe       7.07810141       1.70793292       4.15720151
Fe       8.85959550       0.00969802       4.14355178
Fe       8.89039768       1.71271311       2.75942972
Fe       7.09664814      -0.00902622       5.51075591
Fe       7.08654617       1.71553679       6.88368190
Fe       8.87171828       0.00309280       6.92413075
Fe       8.86723812       1.72005619       5.52877243
Fe       7.09646252      -0.01017584       8.29401183
Fe       7.10293012       1.73783557       9.65795875
Fe       8.89473092       0.00182079       9.66049305
Fe       8.87702586       1.71922015       8.29356401
Fe       7.07807973      -0.00978753      11.05215861
Fe       7.10392768       1.71504981      12.44036539
Fe       8.87159751       0.01109558      12.43957098
Fe       8.86913768       1.71682798      11.04263169
Fe       7.09809214       3.43519290       0.02339458
Fe       7.09307108       5.16138014       1.37463386
Fe       8.86897981       3.42937458       1.39437762
Fe       8.86161976       5.15890266       0.00099623
Fe       7.07231818       3.45197009       2.76278853
Fe       7.08511257       5.17366832       4.15510320
Fe       8.86583786       3.43769783       4.15068071
Fe       8.86728875       5.15975823       2.77086920
Fe       7.07999512       3.44487196       5.53256458
Fe       7.09091081       5.15002703       6.90397466
Fe       8.86795583       3.43154124       6.89805393
Fe       8.86394421       5.16654995       5.52735564
Fe       7.11464476       3.44677134       8.28853672
Fe       7.09973285       5.17537298       9.66760648
Fe       8.88249584       3.44656594       9.66588442
Fe       8.87371502       5.14745032       8.27730110
Fe       7.08994601       3.43622274      11.06459000
Fe       7.08299212       5.16002145      12.42877929
Fe       8.87911581       3.44947200      12.43637710
Fe       8.85656252       5.18084239      11.04438879
Fe       7.10055980       6.87479322      -0.01110657
Fe       7.09901380       8.58623862       1.37200827
Fe       8.86822945       6.89801355       1.37771743
Fe       8.88193368       8.61517839      -0.01345618
Fe       7.09831886       6.89433519       2.76848545
Fe       7.10421640       8.59143293       4.13463840
Fe       8.87543661       6.89024452       4.14032916
Fe       8.87889016       8.62559244       2.77207281
Fe       7.10560333       6.89453388       5.53286957
Fe       7.08272094       8.59117843       6.90567518
Fe       8.86331844       6.87741370       6.91695461
Fe       8.87733429       8.59649724       5.53850468
Fe       7.10553876       6.88565235       8.26883930
Fe       7.10375227       8.60298405       9.66838335
Fe       8.88226024       6.89508914       9.67090583
Fe       8.87748285       8.61495746       8.27715417
Fe       7.09662296       6.88404878      11.06590718
Fe       7.08855225       8.59653852      12.43596785
Fe       8.88037263       6.88116565      12.43312703
Fe       8.87472533       8.60936519      11.05739958
Fe       7.09360569      10.32459323       0.01864364
Fe       7.09097245      12.03909090       1.36844262
Fe       8.86627816      10.31876195       1.36255979
Fe       8.86487781      12.04617258      -0.00676172
Fe       7.09568921      10.31779182       2.76499749
Fe       7.10117142      12.05608998       4.13758724
Fe       8.87890305      10.32199109       4.14614986
Fe       8.87118962      12.03962335       2.76894970
Fe       7.10909818      10.33718250       5.51772742
Fe       7.11134020      12.04499782       6.91734026
Fe       8.89378383      10.33366063       6.91681928
Fe       8.87343643      12.05302852       5.52841598
Fe       7.10081103      10.33773688       8.27425632
Fe       7.08678533      12.05596850       9.66710377
Fe       8.88765480      10.33407290       9.69156231
Fe       8.85640735      12.03465710       8.27843243
Fe       7.08982919      10.32963273      11.05936089
Fe       7.09899218      12.04496088      12.43024399
Fe       8.85747709      10.32294072      12.44668138
Fe       8.86496605      12.03931297      11.04304164
Fe       7.09708453      13.76727968      -0.02109756
Fe       7.11419846      15.47845927       1.39550800
Fe       8.86635199      13.77951755       1.36806342
Fe       8.88301402      15.47960137      -0.00291861
Fe       7.10948474      13.75258590       2.77024541
Fe       7.10307521      15.48841698       4.14501773
Fe       8.87077733      13.77567756       4.14250640
Fe       8.87410385      15.47865699       2.78840114
Fe       7.08824913      13.77191221       5.53051192
Fe       7.10526844      15.49985349       6.91635117
Fe       8.88000623      13.76442680       6.90939985
Fe       8.88243266      15.47530138       5.51083620
Fe       7.08865730      13.77388113       8.28714157
Fe       7.11603857      15.48778103       9.66081721
Fe       8.87718281      13.77166086       9.66873366
Fe       8.88599241      15.48516384       8.29154850
Fe       7.12081569      13.79122465      11.05052539
Fe       7.10814587      15.50146514      12.42832962
Fe       8.87034226      13.78106246      12.43660010
Fe       8.87947880      15.51326734      11.04834424
Fe      10.64971869      -0.00541383       0.00978208
Fe      10.63226219       1.72044583       1.39465702
Fe      12.42254622       0.00306221       1.38489436
Fe      12.40824239       1.73090438       0.02146525
Fe      10.64833230       0.00543456       2.76550861
Fe      10.64958048       1.70880927       4.14988508
Fe      12.40925479      -0.00154666       4.13603943
Fe      12.42141058       1.71721366       2.77123012
Fe      10.66600392       0.00903001       5.52012347
Fe      10.64303286       1.72217002       6.91590581
Fe      12.41239654      -0.00115180       6.90691802
Fe      12.41240079       1.71450881       5.52588281
Fe      10.63273225       0.00768335       8.28940860
Fe      10.62720781       1.71641452       9.65717074
Fe      12.42692353       0.01958007       9.66737651
Fe      12.41569656       1.72245319       8.29317210
Fe      10.64699122      -0.00846530      11.08512873
Fe      10.64983269       1.71776756      12.43027551
Fe      12.42555852      -0.01067941      12.44094330
Fe      12.43022096       1.70941214      11.04440650
Fe      10.65709413       3.45305952      -0.00573830
Fe      10.65194763       5.15677937       1.39087314
Fe      12.42208730       3.44504523       1.37418089
Fe      12.43289841       5.16272421       0.00354535
Fe      10.63889959       3.44370319       2.78347358
Fe      10.65205200       5.14683104       4.13734858
Fe      12.42480647       3.41934866       4.13956343
Fe      12.43362162       5.15698329       2.75187270
Fe      10.64901294       3.44716535       5.54023305
Fe      10.66115179       5.17674155       6.90681813
Fe      12.40117914       3.45137474       6.89767298
Fe      12.42334735       5.14417464       5.52222762
Fe      10.64629331       3.42186239       8.29130655
Fe      10.64068511       5.16028431       9.67879380
Fe      12.40330887       3.43771841       9.67984893
Fe      12.43476294       5.16126232       8.28870965
Fe      10.65475552       3.44910369      11.07674946
Fe      10.64149231       5.16263595      12.43142189
Fe      12.42425025       3.44818944      12.43890053
Fe      12.43442709       5.15426729      11.04497789
Fe      10.62908364       6.88538695       0.00398812
Fe      10.62490227       8.58797618       1.40393147
Fe      12.41860064       6.89332709       1.37728323
Fe      12.42420454       8.60979905      -0.00121565
Fe      10.65054327       6.90238650       2.76392993
Fe      10.63586925       8.61828133       4.14148868
Fe      12.42872796       6.88974275       4.17358386
Fe      12.43868931       8.62532905       2.77362564
Fe      10.65680330       6.87905434       5.53767706
Fe      10.65074556       8.61473956       6.92824892
Fe      12.41385921       6.88443199       6.91425102
Fe      12.42478808       8.59971915       5.53047877
Fe      10.64098384       6.88544596       8.28526767
Fe      10.63137695       8.59239582       9.67773814
Fe      12.43842044       6.88370405       9.65708332
Fe      12.41301518       8.60422809       8.28777136
Fe      10.64077715       6.87828855      11.05767952
Fe      10.65070714       8.61080454      12.43637078
Fe      12.43413511       6.88742369      12.42515089
Fe      12.41453173       8.61519596      11.04783960
Fe      10.64005025      10.33136980       0.00989417
Fe      10.65764087      12.04811192       1.37593939
Fe      12.42321269      10.32635830       1.38662184
Fe      12.43254687      12.04253400      -0.02144033
Fe      10.64528125      10.31253199       2.77616978
Fe      10.67114021      12.04066600       4.14305893
Fe      12.43209051      10.33589058       4.12330672
Fe      12.42608867      12.05972151       2.75505494
Fe      10.65147986      10.30545458       5.53350709
Fe      10.64723867      12.05089015       6.90356232
Fe      12.41563674      10.33728131       6.91398955
Fe      12.41952519      12.07244754       5.51916934
Fe      10.65131802      10.32678662       8.28210561
Fe      10.64892000      12.05067148       9.66978961
Fe      12.41611388      10.31531734       9.65958258
Fe      12.42840778      12.05204096       8.29903409
Fe      10.66297486      10.31379372      11.04191759
Fe      10.64921512      12.05183303      12.42666589
Fe      12.41620180      10.31394295      12.43140015
Fe      12.41745994      12.05095302      11.05901510
Fe      10.65284061      13.76474897       0.01734271
Fe      10.63808966      15.49053532       1.37710346
Fe      12.41239454      13.76982954       1.37363645
Fe      12.42546655      15.46938080       0.01173888
Fe      10.64306099      13.77029969       2.76631322
Fe      10.64728521      15.50720886       4.16540455
Fe      12.42150040      13.76047732       4.14263369
Fe      12.41821141      15.49344703       2.77647718
Fe      10.64113759      13.77081702       5.53376664
Fe      10.64413091      15.48636012       6.90678285
Fe      12.43369533      13.77949014       6.90527418
Fe      12.41614880      15.48407746       5.53257737
Fe      10.64284572      13.77334324       8.31006223
Fe      10.65841363      15.49653946       9.68249823
Fe      12.42765828      13.76175544       9.66163271
Fe      12.41714258      15.50155813       8.27863039
Fe      10.63940251      13.76361242      11.05065008
Fe      10.64462155      15.47851263      12.44557080
Fe      12.41966284      13.76137953      12.45340855
Fe      12.42121746      15.48338847      11.03949334
Fe      14.19490918      -0.01404863       0.00363756
Fe      14.21229416       1.72457009       1.36594894
Fe      15.96247386       0.00580303       1.37728348
Fe      15.95754804       1.72016910      -0.01075873
Fe      14.20664285      -0.00683853       2.74989635
Fe      14.19986780       1.70605212       4.14520366
Fe      15.96945669      -0.00315339       4.15363943
Fe      15.97231585       1.72060243       2.78361171
Fe      14.19657441      -0.00294628       5.52078209
Fe      14.19327484       1.71844155       6.91687765
Fe      15.96985664      -0.00066870       6.89556618
Fe      15.94722671       1.71465858       5.50926665
Fe      14.19837365      -0.00218116       8.29138132
Fe      14.18789422       1.72562242       9.66464480
Fe      15.95646530       0.00158252       9.66500844
Fe      15.97587231       1.71960896       8.29527683
Fe      14.20429235       0.00574467      11.05154729
Fe      14.18561792       1.71691616      12.43279670
Fe      15.98850855      -0.02386950      12.42581374
Fe      15.97146095       1.72802797      11.05260605
Fe      14.17779051       3.44118106      -0.00259643
Fe      14.18118504       5.16660100       1.38777706
Fe      15.95830705       3.44206874       1.38920333
Fe      15.96972489       5.14879988       0.00289799
Fe      14.19420174       3.43610062       2.75633392
Fe      14.19477433       5.16071244       4.13754213
Fe      15.96898898       3.44900217       4.14377093
Fe      15.97684602       5.15277866       2.77710043
Fe      14.19415547       3.44937335       5.53552491
Fe      14.19928005       5.16358373       6.91205590
Fe      15.97563250       3.43807942       6.89625488
Fe      15.98040960       5.15891819       5.54044058
Fe      14.19680904       3.44593068       8.28311630
Fe      14.21197441       5.16753095       9.66427898
Fe      15.97770593       3.45081461       9.66220752
Fe      15.97432791       5.15864915       8.28998982
Fe      14.20409567       3.43575428      11.03751881
Fe      14.20807573       5.18398155      12.44983419
Fe      15.96863049       3.44297482      12.43917940
Fe      15.95882618       5.16784927      11.05106120
Fe      14.19142279       6.88826652      -0.00761748
Fe      14.20694998       8.62357066       1.39065170
Fe      15.96530927       6.88328921       1.39038701
Fe      15.96406681       8.59534158      -0.02159452
Fe      14.18659889       6.87062367       2.76456432
Fe      14.19606919       8.61900061       4.14466591
Fe      15.98773713       6.89264388       4.15555989
Fe      15.97718747       8.62007085       2.76360980
Fe      14.19342524       6.87873768       5.51210009
Fe      14.17798318       8.60922095       6.89831053
Fe      15.97656759       6.88381229       6.90146242
Fe      15.98900670       8.59581546       5.52665294
Fe      14.19982451       6.88498839       8.29167598
Fe      14.18548771       8.61196347       9.65402203
Fe      15.96506892       6.87744079       9.65559538
Fe      15.97027719       8.62724762       8.30115633
Fe      14.21268207       6.88706539      11.05283634
Fe      14.19730305       8.59762002      12.43908410
Fe      15.95905109       6.89397884      12.42985531
Fe      15.98070091       8.61307921      11.05181901
Fe      14.17553286      10.32579198       0.01375415
Fe      14.20226394      12.04192854       1.38761410
Fe      15.98018280      10.31824965       1.36943703
Fe      15.99449708      12.06183260       0.01160067
Fe      14.18281694      10.33407307       2.75496737
Fe      14.19907296      12.03940421       4.15112763
Fe      15.97064510      10.32706713       4.16592059
Fe      15.96508766      12.04866025       2.76886878
Fe      14.19010753      10.32050123       5.53343114
Fe      14.20319702      12.05621547       6.92304381
Fe      15.92764988      10.33888253       6.91005626
Fe      15.96833492      12.04094833       5.51063627
Fe      14.21377967      10.31841913       8.26785256
Fe      14.18998104      12.03010700       9.66751084
Fe      15.96432317      10.32044519       9.67448007
Fe      15.98668662      12.05661290       8.28117732
Fe      14.17703319      10.33782941      11.04924410
Fe      14.20062300      12.05238126      12.42837970
Fe      15.96408781      10.32248054      12.44212522
Fe      15.95838378      12.04485504      11.05401482
Fe      14.18980131      13.77008244       0.00221918
Fe      14.18345905      15.47967325       1.38152940
Fe      15.96273426      13.76513000       1.37669097
Fe      15.97124049      15.49115782      -0.00401796
Fe      14.21154696      13.75110972       2.76346282
Fe      14.20800931      15.48154954       4.13586035
Fe      15.96976202      13.77148405       4.13785815
Fe      15.99158175      15.48742506       2.76182222
Fe      14.19387585      13.77909478       5.51857104
Fe      14.19081582      15.48392288       6.90692540
Fe      15.97308886      13.78515870       6.90638707
Fe      15.98296926      15.48208209       5.53663238
Fe      14.20730899      13.76984243       8.28773868
Fe      14.19757459      15.47835980       9.67834149
Fe      15.96458521      13.75900614       9.67545032
Fe      15.98550677      15.49590022       8.27502648
Fe      14.19378186      13.77594770      11.04793249
Fe      14.18739214      15.50534130      12.43610642
Fe      15.98969756      13.74956392      12.42375483
Fe      15.97627310      15.49039437      11.06740878
