211
Lattice="182.34161170382913 0.0 0.0 0.0 182.34161170382913 0.0 0.0 0.0 182.34161170382913" Properties=species:S:1:pos:R:3:initial_magmoms:R:1 id=sample_001131 pbc="T T T"
Fe      87.95349059      87.93409479      87.96243889       2.30000000
Fe      89.38191680      89.37639682      86.52489084       2.30000000
Fe      90.81908009      90.81466118      85.10839819       2.30000000
Fe      92.26048139      92.25474832      83.65432224       2.30000000
Fe      93.66752268      93.69224837      82.23550228       2.30000000
Fe      95.13767541      95.12331462      80.76649068       2.30000000
Fe      96.54568052      96.55406196      79.35354267       2.30000000
Fe      97.99338302      97.96960037      77.93044436       2.30000000
Fe      89.40132400      86.51991619      89.38825575       2.30000000
Fe      90.81407526      87.97008837      87.96466559       2.30000000
Fe      92.25388658      89.40293442      86.51620025       2.30000000
Fe      93.69369148      90.83736496      85.09847320       2.30000000
Fe      95.12031161      92.25351905      83.65637609       2.30000000
Fe      96.56022404      93.69749021      82.21605280       2.30000000
Fe      97.99554462      95.12809317      80.79861771       2.30000000
Fe      99.43071757      96.55011913      79.37258300       2.30000000
Fe      90.83250871      85.08718950      90.82889580       2.30000000
Fe      92.26220106      86.51464338      89.38929684       2.30000000
Fe      93.70028096      87.94818291      87.95984655       2.30000000
Fe      95.11718101      89.41489498      86.51691179       2.30000000
Fe      96.54037854      90.82433021      85.07965816       2.30000000
Fe      97.99105214      92.26970941      83.64526717       2.30000000
Fe      99.43756903      93.69984365      82.21280458       2.30000000
Fe      92.25459534      83.63964885      92.25746335       2.30000000
Fe      93.68598905      85.10186598      90.81486018       2.30000000
Fe      95.11601679      86.53356947      89.39540008       2.30000000
Fe      96.54311667      87.97409327      87.94231256       2.30000000
Fe      97.99487740      89.38465376      86.53803490       2.30000000
Fe      99.43642767      90.81557403      85.09254520       2.30000000
Fe     100.84727563      92.27487201      83.65994558       2.30000000
Fe      93.67885473      82.25056893      93.70464354       2.30000000
Fe      95.11796489      83.65770858      92.26046377       2.30000000
Fe      96.55710687      85.10011761      90.83559058       2.30000000
Fe      98.00501563      86.49529733      89.38798371       2.30000000
Fe      99.41798962      87.94198193      87.94658140       2.30000000
Fe     100.86823857      89.39252899      86.52270978       2.30000000
Fe      95.13050657      80.77832145      95.12860473       2.30000000
Fe      96.55760255      82.20498977      93.70593235       2.30000000
Fe      97.98947329      83.67210806      92.25666984       2.30000000
Fe      99.43443156      85.08324714      90.81967904       2.30000000
Fe     100.84659527      86.55181817      89.38604562       2.30000000
Fe      96.57265850      79.36538842      96.53862135       2.30000000
Fe      98.01595110      80.79352872      95.12339963       2.30000000
Fe      99.41716550      82.21888035      93.68090191       2.30000000
Fe     100.86172248      83.65125702      92.25545948       2.30000000
Fe      97.99033960      77.91973190      97.99650303       2.30000000
Fe      99.43140194      79.36647261      96.55501958       2.30000000
Fe      86.52901707      89.38612965      89.38024360       2.30000000
Fe      87.94498765      90.81528488      87.95509413       2.30000000
Fe      89.37219622      92.25974513      86.53013732       2.30000000
Fe      90.80978359      93.68055155      85.08517033       2.30000000
Fe      92.23874564      95.12916858      83.65136011       2.30000000
Fe      93.68540858      96.56017008      82.22597965       2.30000000
Fe      95.14008267      97.98268935      80.79484928       2.30000000
Fe      96.56446129      99.39700214      79.35864458       2.30000000
Fe      87.94813480      87.95570017      90.82049970       2.30000000
Fe      89.38776619      89.38930263      89.37779013       2.30000000
Fe      90.82231648      90.81544954      87.97299710       2.30000000
Fe      92.26133745      92.25576147      86.53463367       2.30000000
Fe      93.69030936      93.68053374      85.08346608       2.30000000
Fe      95.12676308      95.13223746      83.65132812       2.30000000
Fe      96.54168509      96.56735490      82.22322551       2.30000000
Fe      89.39189254      86.49930009      92.23954444       2.30000000
Fe      90.83058384      87.95223760      90.82495796       2.30000000
Fe      92.25191021      89.38526270      89.39696476       2.30000000
Fe      93.67944051      90.82528089      87.95496255       2.30000000
Fe      95.11387014      92.25674511      86.53021611       2.30000000
Fe      96.56370525      93.68282049      85.07670563       2.30000000
Fe      97.99951235      95.11689125      83.68085010       2.30000000
Fe      90.81831926      85.11356352      93.70364532       2.30000000
Fe      92.28282026      86.52143554      92.25461300       2.30000000
Fe      93.69000760      87.97469700      90.82061451       2.30000000
Fe      95.12588138      89.39040587      89.40088435       2.30000000
Fe      96.56125435      90.83939400      87.95767043       2.30000000
Fe      97.99619669      92.25286760      86.53879214       2.30000000
Fe      92.25903010      83.65052757      95.11503080       2.30000000
Fe      93.66546318      85.11190071      93.69952419       2.30000000
Fe      95.13547415      86.52818315      92.25129142       2.30000000
Fe      96.55968577      87.95428501      90.82289131       2.30000000
Fe      97.98986822      89.39472323      89.36917255       2.30000000
Fe      93.69360959      82.22744015      96.55268068       2.30000000
Fe      95.13325500      83.67013239      95.12322387       2.30000000
Fe      96.56533573      85.09474605      93.70489382       2.30000000
Fe      97.97878010      86.53197239      92.25603596       2.30000000
Fe      95.12439723      80.79148364      97.99713648       2.30000000
Fe      96.53666442      82.22983761      96.55116120       2.30000000
Fe      97.98641445      83.66028953      95.13223109       2.30000000
Fe      96.57732937      79.35805224      99.43989966       2.30000000
Fe      85.09894464      90.81540295      90.82814403       2.30000000
Fe      86.49904074      92.24603937      89.38513491       2.30000000
Fe      87.95448772      93.70031664      87.95356617       2.30000000
Fe      89.39085564      95.11710829      86.52371544       2.30000000
Fe      90.83017005      96.56313130      85.09516548       2.30000000
Fe      92.25833088      98.00159581      83.66338576       2.30000000
Fe      93.69435359      99.40621105      82.21942488       2.30000000
Fe      86.51629077      89.38483214      92.26270598       2.30000000
Fe      87.97107746      90.81317643      90.82474179       2.30000000
Fe      89.38944130      92.27927593      89.38667035       2.30000000
Fe      90.83100379      93.68616043      87.96181775       2.30000000
Fe      92.25529387      95.11807938      86.53534453       2.30000000
Fe      93.69077931      96.55853615      85.09015782       2.30000000
Fe      95.12561412      97.99435266      83.64664030       2.30000000
Fe      87.95413477      87.96385501      93.67564648       2.30000000
Fe      89.38471196      89.39815522      92.24670308       2.30000000
Fe      90.81968262      90.80468409      90.83687863       2.30000000
Fe      92.25593232      92.25927126      89.39430104       2.30000000
Fe      93.70061260      93.67876612      87.96027680       2.30000000
Fe      95.11656577      95.14381692      86.52107195       2.30000000
Fe      89.38062426      86.52696154      95.14662992       2.30000000
Fe      90.81388532      87.95355755      93.70499361       2.30000000
Fe      92.25340817      89.39397562      92.26427011       2.30000000
Fe      93.68716229      90.82976589      90.83048949       2.30000000
Fe      95.13190938      92.25057017      89.39465524       2.30000000
Fe      96.54954600      93.68562721      87.97243106       2.30000000
Fe      90.81644810      85.08271521      96.56126545       2.30000000
Fe      92.26808317      86.51441420      95.11947827       2.30000000
Fe      93.69379250      87.97662299      93.68461664       2.30000000
Fe      95.12665947      89.39451003      92.26979626       2.30000000
Fe      96.56420738      90.83289601      90.81702836       2.30000000
Fe      92.27132824      83.67003962      97.97912470       2.30000000
Fe      93.67928300      85.08726142      96.55483036       2.30000000
Fe      95.13918276      86.51829424      95.10466748       2.30000000
Fe      96.57452483      87.97928824      93.69669216       2.30000000
Fe      93.68693503      82.20941296      99.40560385       2.30000000
Fe      95.10614870      83.65322544      97.97570991       2.30000000
Fe      83.64542245      92.24229902      92.26173157       2.30000000
Fe      85.07992141      93.69330363      90.83759427       2.30000000
Fe      86.53738924      95.13775176      89.36530783       2.30000000
Fe      87.95421977      96.55814275      87.93788780       2.30000000
Fe      89.39078130      97.98968115      86.52221452       2.30000000
Fe      90.83148995      99.43018616      85.08202440       2.30000000
Fe      92.27403989     100.84816350      83.67193473       2.30000000
Fe      85.09632827      90.83969837      93.68060589       2.30000000
Fe      86.52116874      92.24900561      92.26716747       2.30000000
Fe      87.97618924      93.69931234      90.82642678       2.30000000
Fe      89.39373796      95.11354516      89.40046483       2.30000000
Fe      90.82277754      96.55356736      87.97183149       2.30000000
Fe      92.26326706      97.99769300      86.51753172       2.30000000
Fe      86.50812122      89.38700747      95.12147548       2.30000000
Fe      87.96872334      90.83552381      93.69941081       2.30000000
Fe      89.38338760      92.25399703      92.25708467       2.30000000
Fe      90.82234239      93.69942980      90.82644619       2.30000000
Fe      92.24883809      95.12157003      89.37817253       2.30000000
Fe      93.70050203      96.56810072      87.95929829       2.30000000
Fe      87.96715926      87.96121318      96.55872270       2.30000000
Fe      89.37471756      89.39240861      95.12369221       2.30000000
Fe      90.80122145      90.84350640      93.68378132       2.30000000
Fe      92.26790528      92.26226317      92.27283738       2.30000000
Fe      93.71014317      93.69794772      90.81493214       2.30000000
Fe      89.39486178      86.51264243      97.99311246       2.30000000
Fe      90.83166713      87.95469674      96.55129341       2.30000000
Fe      92.25882629      89.39101535      95.10764335       2.30000000
Fe      93.69187860      90.82349210      93.69668489       2.30000000
Fe      90.82804395      85.10837088      99.43059740       2.30000000
Fe      92.25041878      86.51786377      98.00774266       2.30000000
Fe      93.70522602      87.97116850      96.55214893       2.30000000
Fe      92.23584139      83.66284937     100.84997680       2.30000000
Fe      82.22011990      93.68700672      93.70465521       2.30000000
Fe      83.65362288      95.11644970      92.24851056       2.30000000
Fe      85.07614053      96.54988679      90.82021798       2.30000000
Fe      86.53554097      97.98398875      89.38151563       2.30000000
Fe      87.96227853      99.41573128      87.95242280       2.30000000
Fe      89.38246765     100.85178019      86.52415044       2.30000000
Fe      83.65801955      92.26618711      95.12421680       2.30000000
Fe      85.10310318      93.69529833      93.70398423       2.30000000
Fe      86.51442488      95.11656829      92.25272939       2.30000000
Fe      87.96067944      96.54646015      90.83645423       2.30000000
Fe      89.38912546      97.99563496      89.39053185       2.30000000
Fe      85.08780926      90.81682673      96.53958787       2.30000000
Fe      86.54674379      92.25161120      95.11855855       2.30000000
Fe      87.95482167      93.67471974      93.68237350       2.30000000
Fe      89.39543277      95.13285110      92.25142132       2.30000000
Fe      90.81956329      96.55199672      90.81932211       2.30000000
Fe      86.52975352      89.38268162      97.99944465       2.30000000
Fe      87.96870401      90.81513000      96.55678477       2.30000000
Fe      89.39780240      92.25813358      95.14179717       2.30000000
Fe      90.83050118      93.68127192      93.68828718       2.30000000
Fe      87.97100820      87.96671032      99.42806376       2.30000000
Fe      89.38472769      89.40296674      97.98150013       2.30000000
Fe      90.83520046      90.81434513      96.55919523       2.30000000
Fe      89.40761124      86.52787801     100.86236122       2.30000000
Fe      80.80281052      95.14339081      95.12156547       2.30000000
Fe      82.21933255      96.55856611      93.69513631       2.30000000
Fe      83.67194815      97.99842683      92.25715547       2.30000000
Fe      85.09402639      99.41953841      90.84172060       2.30000000
Fe      86.51786838     100.85468683      89.39991743       2.30000000
Fe      82.23412728      93.70317388      96.56419249       2.30000000
Fe      83.64296867      95.12508454      95.11488224       2.30000000
Fe      85.09200214      96.55187721      93.69672375       2.30000000
Fe      86.53138177      98.00502027      92.24510695       2.30000000
Fe      83.65319263      92.24736904      98.00388144       2.30000000
Fe      85.10845303      93.68558374      96.54708684       2.30000000
Fe      86.51486931      95.14350542      95.13467403       2.30000000
Fe      87.95107568      96.57147323      93.69193725       2.30000000
Fe      85.10008245      90.82046614      99.42480442       2.30000000
Fe      86.54533220      92.25627746      97.97856655       2.30000000
Fe      87.95198843      93.69804574      96.55168307       2.30000000
Fe      86.53222270      89.39897414     100.86395466       2.30000000
Fe      79.35215674      96.56355895      96.55787588       2.30000000
Fe      80.79646235      97.99055610      95.10274727       2.30000000
Fe      82.21821428      99.41634517      93.68706866       2.30000000
Fe      83.67619039     100.85931710      92.27330672       2.30000000
Fe      80.79805639      95.11096616      97.99429567       2.30000000
Fe      82.21425115      96.54781958      96.54785236       2.30000000
Fe      83.67420354      97.99149596      95.13879757       2.30000000
Fe      82.22298585      93.69798307      99.39609809       2.30000000
Fe      83.65991821      95.11441979      97.99565351       2.30000000
Fe      83.64540796      92.25369468     100.86619872       2.30000000
Fe      77.93786715      97.98263679      97.98332140       2.30000000
Fe      79.35133786      99.43440815      96.55106894       2.30000000
Fe      79.35968765      96.55313426      99.42350226       2.30000000
