256
Lattice="18.693069059605403 0.0 0.0 0.0 17.55112444568531 0.0 0.0 0.0 17.8906107110768" Properties=species:S:1:pos:R:3 id=sample_000724 pbc="F F F"
Al       0.01611447       0.01609388       0.00462252
Al      -0.01120245       2.19706211       2.23844346
Al       2.33926772       0.01405698       2.22591135
Al       2.32328760       2.18792382       0.00499666
Al       0.02186857      -0.00062517       4.46092545
Al       0.00841234       2.20297522       6.71330578
Al       2.32515349      -0.00295647       6.69919321
Al       2.33023435       2.18116079       4.47270701
Al      -0.01242128      -0.00544475       8.94351417
Al       0.02481733       2.19044756      11.17198219
Al       2.31948145       0.00411027      11.16721778
Al       2.34016277       2.19241459       8.95219550
Al      -0.00740741      -0.00388124      13.39922820
Al      -0.00658301       2.20539672      15.65493465
Al       2.34718512       0.00216362      15.65489323
Al       2.34102069       2.17889661      13.41932927
Al      -0.00802205       4.37812571      -0.00453127
Al       0.00579374       6.58196035       2.23557916
Al       2.31925632       4.39271426       2.22495570
Al       2.32471293       6.57688252       0.01410475
Al       0.02467959       4.38828297       4.47123111
Al      -0.00118309       6.56974753       6.70918034
Al       2.32625172       4.40572700       6.70218364
Al       2.32525272       6.60184677       4.47451413
Al       0.00931701       4.38426208       8.94172134
Al      -0.00485341       6.57927084      11.19298714
Al       2.33010377       4.39496707      11.17626205
Al       2.34852821       6.59049254       8.95414880
Al       0.00337807       4.39806859      13.40892452
Al      -0.00519071       6.57653625      15.66520888
Al       2.34303368       4.38447290      15.67749907
Al       2.34244517       6.59303164      13.41860014
Al      -0.00391589       8.76823837       0.00525434
Al      -0.00609174      10.99168689       2.24587835
Al       2.32902401       8.80880144       2.24589609
Al       2.33552188      10.97276038       0.00616347
Al       0.00920290       8.77937226       4.47164472
Al      -0.00436232      10.97231196       6.70598066
Al       2.34195103       8.76868247       6.70588781
Al       2.35322751      10.97956319       4.47665501
Al       0.00144673       8.77799113       8.95797685
Al       0.01926930      10.98226512      11.17722345
Al       2.31784972       8.76516784      11.17343012
Al       2.33897789      10.95847272       8.93932682
Al      -0.01391383       8.77480808      13.42104893
Al       0.00873271      10.96174000      15.65286630
Al       2.33680220       8.76711582      15.64316300
Al       2.32632367      10.96389924      13.41772472
Al      -0.01292144      13.16264017       0.01017460
Al      -0.00906403      15.36356494       2.24050349
Al       2.33169638      13.16829310       2.23395980
Al       2.32880140      15.36557874       0.00867227
Al      -0.01759074      13.16823535       4.47123594
Al      -0.00951653      15.35743830       6.70727804
Al       2.33054149      13.16774377       6.68944888
Al       2.32207583      15.35837544       4.46043257
Al      -0.01463930      13.17741756       8.93898013
Al      -0.01067854      15.36329467      11.18554474
Al       2.34702647      13.15129590      11.19213328
Al       2.33636828      15.33946293       8.95657274
Al      -0.00362449      13.16103544      13.40994405
Al       0.01187761      15.35734077      15.67157344
Al       2.32081447      13.14273681      15.67140903
Al       2.34623655      15.35286250      13.41792276
Al       4.67693277      -0.02491742       0.00529574
Al       4.69985281       2.18728034       2.22154548
Al       7.01863565       0.01341196       2.22134965
Al       7.00751248       2.19792681      -0.02120436
Al       4.66650034      -0.00777759       4.47016002
Al       4.66662411       2.17077384       6.72836296
Al       7.00251166      -0.00920244       6.69433494
Al       7.02355363       2.18465240       4.46006445
Al       4.65835556      -0.00404953       8.95166710
Al       4.67873077       2.19753985      11.19987872
Al       7.00609931      -0.00734567      11.17749648
Al       7.00521717       2.21438800       8.96338563
Al       4.67772240      -0.00499634      13.43367945
Al       4.68152336       2.19112477      15.65229800
Al       6.98565089      -0.00834162      15.65068386
Al       7.00625070       2.17965017      13.41482418
Al       4.68462918       4.38760907      -0.00836115
Al       4.66174293       6.57794778       2.23201556
Al       7.00806645       4.39611255       2.23606749
Al       7.01258006       6.58520901       0.00694541
Al       4.66193881       4.37385194       4.49008541
Al       4.66247927       6.57256680       6.71038659
Al       7.02104289       4.38735091       6.70738425
Al       7.00542691       6.57150297       4.45980471
Al       4.66567660       4.38267789       8.93732806
Al       4.65862872       6.57898535      11.18416126
Al       7.00778621       4.39158490      11.18265634
Al       7.00676690       6.57888842       8.94551132
Al       4.69512759       4.37305612      13.42393920
Al       4.67386664       6.57127565      15.65667763
Al       7.01984949       4.37961493      15.66468984
Al       7.03098256       6.56523118      13.39420235
Al       4.67667806       8.78665956      -0.01152660
Al       4.66434776      10.97869443       2.23356951
Al       7.01227953       8.77226863       2.24802996
Al       6.98474111      10.96620883      -0.00142914
Al       4.66350797       8.77435366       4.46658582
Al       4.65192491      10.98119202       6.71057415
Al       7.01317996       8.77576285       6.68982185
Al       7.01643592      10.95632537       4.48332670
Al       4.66382260       8.76097892       8.94344159
Al       4.66598735      10.98244904      11.19212895
Al       7.01955414       8.76951432      11.17904055
Al       6.98323601      10.98374322       8.94762942
Al       4.67628167       8.77768028      13.41136286
Al       4.66606728      10.98023545      15.64760261
Al       7.01107418       8.78582620      15.66974480
Al       7.01371775      10.98259993      13.41993817
Al       4.65600870      13.17660175       0.00172604
Al       4.67074049      15.37088023       2.24119641
Al       7.00016899      13.16456734       2.22610131
Al       7.03079520      15.35169779      -0.02189982
Al       4.64818533      13.15426406       4.46940739
Al       4.66803220      15.36180991       6.71172785
Al       6.99942885      13.16354331       6.70989801
Al       7.02263787      15.35713715       4.47137718
Al       4.69386630      13.14652548       8.94692335
Al       4.65510857      15.37216116      11.17664683
Al       6.99553237      13.16872814      11.19638313
Al       7.02946587      15.35478969       8.95993423
Al       4.67034836      13.16504352      13.42207509
Al       4.66587550      15.35199580      15.66471074
Al       7.02766469      13.19821523      15.65444976
Al       7.01868829      15.34829964      13.43909858
Al       9.34408881       0.00544707       0.00568244
Al       9.36205412       2.20622162       2.23199971
Al      11.67317878      -0.01457407       2.22092081
Al      11.68718113       2.19997924      -0.00466378
Al       9.33999347      -0.00631674       4.48666859
Al       9.36071258       2.19067405       6.72762784
Al      11.68573367       0.00188040       6.71369644
Al      11.69149841       2.18681642       4.46250641
Al       9.36042661      -0.00763466       8.95270976
Al       9.34558168       2.18135290      11.17759753
Al      11.68468437       0.00311430      11.19675455
Al      11.68670595       2.19003025       8.93483985
Al       9.34762624       0.00114304      13.44331383
Al       9.34238050       2.19915261      15.64949657
Al      11.68622152       0.00083024      15.66657785
Al      11.68465317       2.19548105      13.41832470
Al       9.32666722       4.38325257       0.01403229
Al       9.34536198       6.59087319       2.24257726
Al      11.69997679       4.38662276       2.23231417
Al      11.68996474       6.57142510      -0.01236374
Al       9.35402438       4.39463044       4.47297957
Al       9.33220744       6.58413926       6.72013602
Al      11.70226050       4.38573116       6.69913632
Al      11.69520070       6.58011055       4.47472207
Al       9.33407433       4.39403785       8.95452700
Al       9.35417734       6.58511782      11.18169766
Al      11.67049441       4.41042623      11.17736690
Al      11.67256044       6.56765220       8.95535647
Al       9.35704620       4.38535318      13.43392451
Al       9.35450134       6.58268735      15.66176899
Al      11.69898044       4.36827906      15.65693255
Al      11.68425531       6.58761730      13.40362707
Al       9.34727173       8.77604005       0.00927584
Al       9.34009886      10.97913348       2.23588842
Al      11.66667181       8.76207695       2.23618119
Al      11.69365127      10.97286022       0.01161311
Al       9.33768180       8.77714707       4.50616908
Al       9.34930993      10.96846495       6.71434975
Al      11.67973401       8.78198975       6.71274886
Al      11.67733757      10.96894482       4.47228799
Al       9.33396686       8.77092529       8.94352127
Al       9.34415639      10.96193219      11.18332410
Al      11.70053114       8.76487709      11.19017308
Al      11.67026662      10.96990732       8.93846401
Al       9.34499620       8.78519034      13.42513299
Al       9.35460452      10.96777185      15.67320916
Al      11.67029052       8.77491753      15.66058593
Al      11.67986388      10.95167734      13.42515119
Al       9.34624662      13.17385504      -0.00282911
Al       9.32525846      15.36358138       2.25102876
Al      11.67880316      13.16606781       2.24620664
Al      11.68905464      15.37083205      -0.00776365
Al       9.35441493      13.15676211       4.47238887
Al       9.35330686      15.35904744       6.71497558
Al      11.68136509      13.15955554       6.70455173
Al      11.67524924      15.36082294       4.49632193
Al       9.35155717      13.15850206       8.92068418
Al       9.36261368      15.34979887      11.17542943
Al      11.67964538      13.17411530      11.15812207
Al      11.67462688      15.35326571       8.95467337
Al       9.35205544      13.16774308      13.41535733
Al       9.35673161      15.36016639      15.65300511
Al      11.67873158      13.16048369      15.65130158
Al      11.69519150      15.35063986      13.42549382
Al      13.99488439      -0.00235758       0.00750296
Al      14.02382421       2.20155545       2.23464894
Al      16.37048381       0.01688449       2.23138617
Al      16.36305946       2.21721546      -0.00594979
Al      14.02491377       0.00894467       4.46334268
Al      14.03452106       2.18805995       6.70248902
Al      16.35718322       0.00152166       6.70250598
Al      16.36694956       2.18204671       4.48311982
Al      14.02641213      -0.00744040       8.96375242
Al      14.03414904       2.20656256      11.19176317
Al      16.34429826      -0.00039015      11.17314445
Al      16.36554300       2.18697485       8.93357372
Al      14.01601482      -0.00375105      13.40922871
Al      14.01237013       2.19403430      15.65245310
Al      16.35289723      -0.02478275      15.65293636
Al      16.36757961       2.19837171      13.42510321
Al      14.02223404       4.38735028      -0.01497266
Al      14.00501515       6.57961110       2.21374243
Al      16.36814688       4.38686610       2.22998540
Al      16.36220423       6.56330929       0.00870182
Al      14.01441777       4.38022947       4.48986520
Al      14.01334747       6.58380279       6.69482252
Al      16.35819343       4.38239813       6.69403906
Al      16.36293581       6.58089397       4.46398050
Al      14.03496322       4.42764715       8.95223268
Al      14.00982577       6.57167738      11.17601458
Al      16.35162444       4.39932183      11.16972161
Al      16.35960861       6.57085333       8.95219213
Al      14.01932712       4.38336548      13.41984874
Al      14.02923763       6.58627728      15.64478760
Al      16.36554147       4.39002694      15.65226217
Al      16.35736411       6.57359505      13.42833421
Al      14.04006067       8.78814629      -0.03487726
Al      14.00896212      10.96123826       2.24344099
Al      16.36652917       8.78487009       2.22496859
Al      16.35758907      10.96242990       0.00573268
Al      14.03386618       8.78268802       4.48207843
Al      14.01597877      10.98010819       6.70939574
Al      16.35196248       8.80890024       6.70630025
Al      16.33321946      10.97361194       4.48442327
Al      14.01382897       8.77172273       8.93698956
Al      14.01615668      10.96549668      11.17935899
Al      16.35604944       8.77857581      11.19919217
Al      16.35687214      10.97884208       8.93662619
Al      14.02952496       8.76117566      13.42688948
Al      14.01406691      10.96407521      15.66703031
Al      16.36147610       8.76748452      15.65449197
Al      16.37862509      10.97434248      13.41947802
Al      14.02178745      13.17773328       0.00450990
Al      14.02630373      15.36676329       2.21990045
Al      16.35963759      13.16315889       2.23767669
Al      16.35493178      15.35841215       0.00924776
Al      14.01307736      13.17379631       4.45303543
Al      14.02520545      15.36009844       6.71711445
Al      16.34129229      13.17844420       6.70583797
Al      16.34626513      15.36584567       4.46689321
Al      14.02677196      13.15984064       8.91740376
Al      14.00525000      15.36601196      11.18296842
Al      16.34855717      13.15953414      11.19088107
Al      16.34531749      15.36666562       8.92955498
Al      14.00257889      13.17546436      13.42212011
Al      14.02009243      15.34804516      15.66341510
Al      16.35370372      13.17077466      15.66638133
Al      16.37185048      15.36286265      13.42405779
