256
Lattice="22.839124770170976 0.0 0.0 0.0 22.69969562453998 0.0 0.0 0.0 24.022162494885606" Properties=species:S:1:pos:R:3 id=sample_000416 pbc="F F F"
Si       0.00305693       0.00660595      -0.00237543
Si      -0.00505077       2.85547389       3.02489120
Si       2.87136514       0.00870509       3.01138534
Si       2.84447022       2.82777764      -0.00653345
Si      -0.00163547      -0.00007293       6.00358636
Si      -0.00371192       2.85867079       8.99292068
Si       2.84795448      -0.01117839       8.98240406
Si       2.83877124       2.84730373       6.01542330
Si      -0.01125004      -0.00017940      12.02732353
Si      -0.00482643       2.85128007      15.02034712
Si       2.87505059       0.00284252      15.01086199
Si       2.84956929       2.84344809      12.03403035
Si      -0.01750780       0.03132566      18.01191428
Si      -0.00755927       2.84104829      21.02888762
Si       2.88125343      -0.00184515      21.02760335
Si       2.85624197       2.81780482      18.01255343
Si       0.00153788       5.65942802       0.00382214
Si      -0.00564023       8.53328724       2.99507117
Si       2.85291616       5.65719870       3.00629865
Si       2.85340778       8.50639516       0.01471710
Si      -0.00158313       5.67324538       6.00570568
Si       0.02574013       8.51353764       9.00246557
Si       2.84109409       5.66753589       8.99692892
Si       2.85331706       8.50739333       5.99430056
Si       0.00561620       5.64942796      12.01399345
Si      -0.01413580       8.52417177      14.99725549
Si       2.85140655       5.68643820      15.00216782
Si       2.84487305       8.51916122      12.00024857
Si      -0.00045252       5.67797554      18.01291636
Si       0.00646350       8.52360037      21.01531894
Si       2.84219502       5.68478316      21.01126894
Si       2.85083120       8.51009670      18.01936447
Si       0.00204154      11.34875534      -0.00349273
Si       0.00301580      14.18157440       2.99250989
Si       2.84523236      11.37290042       3.00277864
Si       2.86962239      14.20028411       0.00894826
Si      -0.00408010      11.34094763       6.02100460
Si      -0.00292680      14.17903081       9.00486704
Si       2.83470702      11.34241811       9.01139631
Si       2.82991095      14.17774270       5.99749420
Si       0.00704163      11.34847459      12.00239414
Si      -0.00767878      14.20129305      15.01947803
Si       2.85286709      11.33328059      15.01559219
Si       2.85040092      14.18463005      11.99998242
Si      -0.00847843      11.33659323      18.01181021
Si       0.00501792      14.18720792      21.03154976
Si       2.84333454      11.35708800      21.01398812
Si       2.84797365      14.18603409      18.00024958
Si       0.00929917      17.00647113       0.02132090
Si       0.01785987      19.84036802       2.98281396
Si       2.86103808      17.04147270       2.99526303
Si       2.86940649      19.85818624      -0.00939569
Si       0.00952202      17.02696580       6.00694464
Si      -0.01547406      19.87990488       9.01226594
Si       2.85275652      17.01393081       8.98746222
Si       2.87226158      19.86926548       6.00398651
Si      -0.01309915      17.03148026      12.01470118
Si       0.00046033      19.86472891      15.01036204
Si       2.86405260      17.02765240      15.00766830
Si       2.83599366      19.85197722      12.00204426
Si      -0.01385165      17.02712911      18.00258756
Si       0.00118973      19.86515337      21.04833084
Si       2.83021242      17.02799029      21.02334496
Si       2.84708980      19.85463864      18.00619969
Si       5.70623252      -0.00055859       0.01076834
Si       5.71045663       2.84764929       3.00512087
Si       8.54211947       0.00421785       3.00157122
Si       8.57452997       2.82406034       0.00413295
Si       5.70751078      -0.00416692       6.01343913
Si       5.70381144       2.81875944       9.02136354
Si       8.54022725      -0.01480099       9.00591250
Si       8.57203674       2.83978512       6.01161673
Si       5.69956635      -0.00053332      12.00094082
Si       5.70807288       2.83317826      15.01551142
Si       8.56470434       0.00035082      15.00450871
Si       8.58480574       2.84352076      12.01421411
Si       5.69398918      -0.01072296      18.01232641
Si       5.70863225       2.82660249      21.02278556
Si       8.55941881      -0.01527534      21.04032704
Si       8.57265951       2.83851981      18.02087299
Si       5.71338117       5.68740310      -0.00758424
Si       5.71467844       8.50920611       2.99096167
Si       8.56070968       5.67335191       2.99657462
Si       8.56394062       8.49795425      -0.00741113
Si       5.70554732       5.67701432       5.99738774
Si       5.70353370       8.52324912       9.01128816
Si       8.55325028       5.69412752       9.00219016
Si       8.58821721       8.52167716       5.99928612
Si       5.68841020       5.67766272      12.01805561
Si       5.70685326       8.50956779      15.00226370
Si       8.57072005       5.67271144      15.02245079
Si       8.56238136       8.50615276      12.00646176
Si       5.72103771       5.67266481      18.00567299
Si       5.71720752       8.52774676      21.00778728
Si       8.55965050       5.68277612      21.02047505
Si       8.57462910       8.51618337      18.03569057
Si       5.70985627      11.35488913      -0.02162852
Si       5.72039361      14.17162178       2.99625382
Si       8.58482726      11.36056519       2.98606747
Si       8.56811477      14.20559901       0.00043562
Si       5.72218085      11.35149162       5.99470467
Si       5.70077700      14.17994191       9.00747218
Si       8.56636092      11.34665442       9.01947389
Si       8.55600511      14.18801555       5.98466084
Si       5.69797657      11.35162143      12.00872529
Si       5.70991911      14.19424460      15.00764768
Si       8.56161089      11.35662924      15.00987339
Si       8.57370538      14.19632555      11.99601641
Si       5.70496066      11.35868201      18.02062605
Si       5.68924869      14.20613913      21.03207283
Si       8.56865093      11.34411810      21.02840711
Si       8.56048777      14.18439257      18.01844979
Si       5.70996619      17.01271162      -0.00013802
Si       5.70294774      19.87205612       2.99614092
Si       8.56838917      17.02713587       2.97164004
Si       8.56466229      19.85576946       0.00182321
Si       5.69555843      17.01993983       6.00358220
Si       5.71568753      19.86544443       9.00849616
Si       8.57925266      17.02660995       9.01502920
Si       8.56300973      19.84550141       5.98561887
Si       5.72070998      17.03612252      12.01071837
Si       5.70278784      19.85706019      15.01749450
Si       8.56585561      17.02638644      15.01722084
Si       8.56715524      19.86853990      12.00845241
Si       5.72924365      17.03298613      18.01184453
Si       5.69638739      19.85576374      21.00713374
Si       8.56878201      17.03362207      21.02924832
Si       8.55132565      19.87190334      18.02948705
Si      11.43401205      -0.00052872      -0.01783222
Si      11.42675914       2.82947207       3.00325809
Si      14.27803714       0.00078159       3.01170086
Si      14.27241733       2.81977323      -0.00625281
Si      11.42752201       0.00175073       6.00806804
Si      11.40846936       2.81911173       9.01869709
Si      14.27836262      -0.02246660       8.99862080
Si      14.27379198       2.82432911       5.98797881
Si      11.40078169      -0.01139182      12.00795681
Si      11.43676230       2.84261539      14.99962875
Si      14.27322229      -0.00565632      15.02177306
Si      14.27320365       2.83429503      12.02731256
Si      11.42060582      -0.00566706      18.03600037
Si      11.43071787       2.82081519      20.99677361
Si      14.28919283       0.00760050      21.01235265
Si      14.26779709       2.83614388      18.02109957
Si      11.43853242       5.67741842      -0.01239174
Si      11.41436397       8.52420091       3.00161759
Si      14.27953699       5.66167137       3.00928302
Si      14.27069950       8.51458697      -0.00355753
Si      11.42745027       5.67489474       6.00767703
Si      11.41573594       8.51476762       9.00400684
Si      14.28026557       5.67016332       8.99537928
Si      14.27444629       8.52076891       6.01178454
Si      11.42370647       5.66010308      12.02335522
Si      11.40330108       8.49485791      15.01687592
Si      14.27990898       5.66227429      15.00965228
Si      14.28069538       8.51466450      12.01414182
Si      11.41976570       5.68414762      18.03585547
Si      11.43421537       8.50609592      21.01400098
Si      14.28386953       5.66960444      21.00604115
Si      14.26944996       8.52503246      18.02764845
Si      11.43147583      11.33100179      -0.00084876
Si      11.42347749      14.17910796       2.99937564
Si      14.28193758      11.32141131       2.99459709
Si      14.26765289      14.17935337      -0.00549635
Si      11.43259302      11.35973842       6.02196703
Si      11.41939689      14.18819307       9.00824199
Si      14.27368789      11.34070335       8.98574875
Si      14.27407336      14.19540670       6.01143133
Si      11.41498141      11.34826439      12.02201796
Si      11.41522829      14.19426740      15.01715201
Si      14.26431288      11.34367014      14.99559882
Si      14.25340066      14.17183698      12.01238540
Si      11.42571848      11.36525764      18.00326256
Si      11.41736033      14.16496302      21.01791068
Si      14.27829872      11.34083168      21.02579593
Si      14.26699732      14.19395117      18.00888900
Si      11.44219571      17.01848456       0.00765245
Si      11.40888119      19.86029332       2.99241495
Si      14.28901215      17.02257199       3.01273736
Si      14.28235076      19.86399718       0.00627165
Si      11.42231756      17.01695046       6.00705112
Si      11.43125091      19.84709895       9.01933223
Si      14.27394132      17.02538424       8.99535116
Si      14.26416126      19.87488596       6.00534057
Si      11.42728318      17.04088996      12.00398711
Si      11.40592350      19.84523403      15.00876070
Si      14.28384086      17.01512601      15.01775023
Si      14.27574325      19.86695313      12.00546597
Si      11.44964668      17.04367943      18.02760316
Si      11.42719301      19.88364679      21.02368707
Si      14.26777371      17.01408353      21.02239025
Si      14.27762196      19.86076124      18.01184118
Si      17.13505532      -0.00513566       0.00672848
Si      17.14069398       2.83563708       2.99180790
Si      19.98328992      -0.00806125       3.00398460
Si      19.98884342       2.83333334       0.00150249
Si      17.13117254       0.00498505       5.99225772
Si      17.12470853       2.82698126       9.01361930
Si      19.98207123       0.01577021       9.00727268
Si      19.99178066       2.83513129       6.00448699
Si      17.12725068       0.01824641      11.99261470
Si      17.12750453       2.84253279      15.00395153
Si      19.97609466      -0.00710024      15.00171058
Si      19.98436204       2.84667755      12.01548279
Si      17.14228835      -0.00391223      18.02377208
Si      17.14962233       2.84190643      21.02848634
Si      19.98430438       0.01538950      21.02264412
Si      19.98468343       2.82332991      18.01154432
Si      17.15152842       5.67818876       0.00476224
Si      17.13087857       8.53965396       3.00262093
Si      19.99851804       5.67721255       2.99505019
Si      19.98226227       8.50421615      -0.00668781
Si      17.13025520       5.67525946       6.01488380
Si      17.12733547       8.50256232       8.98957227
Si      19.96652010       5.67750223       9.00976521
Si      19.99514006       8.49483048       6.02395626
Si      17.12877783       5.67251161      12.01265830
Si      17.12530115       8.50225388      15.00732924
Si      19.98010912       5.68248341      15.01737729
Si      19.99579916       8.52732890      12.01544405
Si      17.13047722       5.68323212      18.01817681
Si      17.12350262       8.51122447      21.01452467
Si      19.98959333       5.65921361      21.01374023
Si      19.97976380       8.50490415      18.00244060
Si      17.12659950      11.36365898      -0.01069872
Si      17.12609744      14.17938210       2.98441160
Si      19.98171963      11.34447133       3.01162984
Si      19.99577520      14.18892891       0.01512617
Si      17.12696495      11.34953061       6.01003315
Si      17.12999277      14.19632528       9.00976054
Si      19.97938283      11.35019948       9.01133495
Si      19.99274354      14.18043742       6.00989837
Si      17.12373023      11.33717264      12.00744239
Si      17.11557741      14.17383475      15.01350769
Si      19.98628907      11.33793574      15.02141499
Si      19.98475696      14.18924932      12.00816294
Si      17.12370773      11.33203936      18.01893590
Si      17.11732174      14.18831804      21.02136402
Si      20.00036518      11.35149277      21.01876547
Si      20.00215386      14.19622820      18.00742801
Si      17.11844460      17.03064821      -0.02670549
Si      17.12416877      19.84875691       3.00331865
Si      19.99248860      17.01532580       3.01038263
Si      19.99001506      19.87523264      -0.00194415
Si      17.13074876      17.01588600       6.00251527
Si      17.12008622      19.83903021       9.02700532
Si      19.97490542      17.02561546       9.01395289
Si      19.98859001      19.85384023       6.01692013
Si      17.15017172      17.04197459      12.01490186
Si      17.14438343      19.87414234      15.01113582
Si      19.99559709      17.02185384      15.01236333
Si      19.99882924      19.85992897      12.01340479
Si      17.13245374      17.04088373      18.01841118
Si      17.12472770      19.85740513      21.02257451
Si      19.98664630      17.00783447      21.04185383
Si      19.97894695      19.85905197      18.00722559
