256
Lattice="17.249861150638807 0.0 0.0 0.0 18.729594390049634 0.0 0.0 0.0 17.441592526374055" Properties=species:S:1:pos:R:3 id=sample_001007 pbc="F F F"
Cu      -0.02221662      -0.01744176      -0.01550700
Cu      -0.03096003       2.35663177       2.20965537
Cu       2.15869786       0.04738878       2.20108264
Cu       2.18119976       2.34016263       0.00043601
Cu      -0.00806810       0.00308561       4.38081809
Cu       0.00839706       2.34672271       6.53817860
Cu       2.16639880       0.00174557       6.55821535
Cu       2.12414968       2.35554264       4.37907994
Cu       0.01748138       0.01577187       8.68959693
Cu       0.01317068       2.36989795      10.89631737
Cu       2.16299505       0.02107180      10.91586460
Cu       2.15125264       2.32917644       8.69073124
Cu       0.02095243       0.00791774      13.08361769
Cu      -0.03333562       2.35543246      15.25853031
Cu       2.14559653       0.01655314      15.27439071
Cu       2.13339715       2.34574393      13.07515681
Cu       0.00749421       4.64559687       0.02861598
Cu       0.01285826       6.99645573       2.19400012
Cu       2.16954764       4.67815940       2.19286591
Cu       2.15277118       7.04207675       0.00796707
Cu       0.01419977       4.69445722       4.37232797
Cu       0.01419232       7.01728265       6.53241962
Cu       2.15484937       4.67639379       6.56201348
Cu       2.15091720       6.99695695       4.36512662
Cu       0.01176292       4.66609633       8.72682725
Cu       0.04210774       6.98820947      10.89239104
Cu       2.16135606       4.69054793      10.87773052
Cu       2.13599123       7.02820299       8.70484234
Cu       0.00336283       4.64778731      13.09239326
Cu      -0.01880412       7.02291292      15.23578630
Cu       2.14360918       4.69843069      15.24650795
Cu       2.16307880       7.03564104      13.09784612
Cu      -0.01002437       9.35172804       0.01972664
Cu       0.03022560      11.70139188       2.19752309
Cu       2.14674985       9.35058559       2.19786032
Cu       2.15311663      11.69380194       0.00335908
Cu      -0.00672721       9.36969448       4.38538160
Cu      -0.00992599      11.71249284       6.53626627
Cu       2.15492053       9.35185809       6.52028674
Cu       2.13888070      11.69480919       4.34753097
Cu       0.01145200       9.34478023       8.75468879
Cu       0.00334724      11.71064661      10.93329564
Cu       2.15276525       9.33145491      10.93070621
Cu       2.14087156      11.71547401       8.71683658
Cu      -0.01231980       9.34284703      13.10648757
Cu      -0.00197712      11.73041399      15.28834776
Cu       2.15254822       9.36192568      15.26822485
Cu       2.16793335      11.71106500      13.10237117
Cu       0.04004595      14.02957253       0.00578969
Cu       0.02190270      16.38358034       2.15366889
Cu       2.16875137      14.00562746       2.17070954
Cu       2.15294819      16.40126787       0.00086294
Cu      -0.00958673      14.01065654       4.36790287
Cu      -0.02249837      16.36562045       6.54691374
Cu       2.16329037      14.04486027       6.54526119
Cu       2.16475010      16.40672761       4.36910873
Cu       0.01748782      14.03240846       8.69379695
Cu       0.03704513      16.39795692      10.89052791
Cu       2.15236604      14.00420401      10.91514265
Cu       2.14169105      16.39865796       8.73326426
Cu      -0.01795423      14.05806274      13.05964449
Cu       0.02897345      16.38989085      15.27514837
Cu       2.16769721      14.09326348      15.25635316
Cu       2.16106021      16.38748976      13.09273409
Cu       4.31530837       0.00931600      -0.03563050
Cu       4.33369238       2.35577762       2.17522209
Cu       6.46862396      -0.00544071       2.17738778
Cu       6.49322719       2.34278491      -0.03166878
Cu       4.31031831      -0.02292138       4.34600769
Cu       4.31208680       2.33328985       6.56611685
Cu       6.47855699      -0.02508707       6.55588230
Cu       6.48251908       2.33051539       4.37062270
Cu       4.28722912       0.02592926       8.76055904
Cu       4.31884562       2.36357661      10.86931477
Cu       6.47565096       0.00488010      10.89917046
Cu       6.46335431       2.34645339       8.73602901
Cu       4.29144189      -0.01197099      13.05420764
Cu       4.29783087       2.36039795      15.25668755
Cu       6.48689093       0.02814579      15.26369008
Cu       6.46096194       2.36720285      13.07776001
Cu       4.32013664       4.67146073       0.01767010
Cu       4.33391906       7.03230222       2.15952272
Cu       6.46248657       4.68825494       2.17171616
Cu       6.47608328       7.01536580      -0.00799754
Cu       4.29968749       4.66288489       4.33128852
Cu       4.30453411       7.01643065       6.54773445
Cu       6.45103736       4.67932220       6.55585221
Cu       6.46721683       7.03417510       4.37702043
Cu       4.28382820       4.69278619       8.71580182
Cu       4.31546116       7.03604313      10.89068822
Cu       6.45100194       4.69710458      10.91647028
Cu       6.46889666       7.03977730       8.74007053
Cu       4.31999717       4.70379088      13.06658661
Cu       4.35363277       7.04625181      15.27902104
Cu       6.43788294       4.71430650      15.26762775
Cu       6.44969476       7.01855845      13.12061305
Cu       4.32615475       9.36355735      -0.03994831
Cu       4.32072576      11.70522640       2.17222945
Cu       6.48564985       9.38362515       2.17339391
Cu       6.46760454      11.70132975       0.01830910
Cu       4.31316288       9.35751387       4.34703425
Cu       4.28575014      11.69644667       6.56315082
Cu       6.48476569       9.39805930       6.51837481
Cu       6.47900508      11.70750762       4.31499805
Cu       4.29370327       9.38939681       8.67968457
Cu       4.30832989      11.73448078      10.87727122
Cu       6.47632306       9.38233915      10.90298393
Cu       6.47159923      11.71202025       8.75494755
Cu       4.30504087       9.35397415      13.04667990
Cu       4.30035308      11.72946240      15.25639944
Cu       6.49564488       9.37421651      15.28302072
Cu       6.47650606      11.70144516      13.09555389
Cu       4.31981397      14.05135250      -0.01380003
Cu       4.31733945      16.38433225       2.16184368
Cu       6.48867922      14.05189699       2.18275586
Cu       6.46581248      16.39093912      -0.02172276
Cu       4.30274875      14.04603154       4.35059471
Cu       4.28695113      16.37993443       6.56482209
Cu       6.48139006      14.04137805       6.54323231
Cu       6.50445949      16.37958319       4.36428770
Cu       4.29283252      14.04096270       8.73020445
Cu       4.31602933      16.39332058      10.91301800
Cu       6.44554649      14.06138049      10.89987804
Cu       6.46508461      16.40384094       8.72741347
Cu       4.34080452      14.06597381      13.09297814
Cu       4.33093064      16.39913337      15.24888846
Cu       6.46868727      14.09515091      15.23775532
Cu       6.44887041      16.39568467      13.06848678
Cu       8.64437351       0.00974911      -0.00071911
Cu       8.61827042       2.31163368       2.20468513
Cu      10.76342103      -0.00704372       2.19202556
Cu      10.78567521       2.35695315      -0.01774171
Cu       8.63869043      -0.01434148       4.36287988
Cu       8.58923308       2.34830449       6.50966079
Cu      10.79518284      -0.01038846       6.54988580
Cu      10.76306467       2.34875999       4.35042116
Cu       8.61611740      -0.00800608       8.71089547
Cu       8.64627792       2.35163600      10.93489285
Cu      10.77762910       0.00629635      10.92568024
Cu      10.77761767       2.33555691       8.72125545
Cu       8.60111026      -0.01205197      13.08484232
Cu       8.61445182       2.30310708      15.24001895
Cu      10.76856077      -0.01137466      15.26303238
Cu      10.78955757       2.31142595      13.06169294
Cu       8.61666603       4.68628829      -0.00362175
Cu       8.62086610       7.00800291       2.17571173
Cu      10.76798410       4.70630169       2.21237227
Cu      10.78636787       7.01801948       0.01253523
Cu       8.63684083       4.67401719       4.36958504
Cu       8.62533090       7.02826635       6.57489096
Cu      10.77008984       4.66239750       6.54776453
Cu      10.82667182       7.01983336       4.36772429
Cu       8.59960467       4.69007925       8.72087182
Cu       8.64022261       7.03815399      10.89684314
Cu      10.80363302       4.70202078      10.89008850
Cu      10.76438010       7.04217068       8.71829853
Cu       8.62201266       4.68255302      13.08500913
Cu       8.62957891       7.02174569      15.24613099
Cu      10.79809140       4.70444882      15.27516581
Cu      10.80336927       7.03364099      13.08249473
Cu       8.61313771       9.38177995      -0.02979257
Cu       8.63988201      11.70782984       2.21255581
Cu      10.77544690       9.33425059       2.16243735
Cu      10.79886140      11.70919262      -0.00120653
Cu       8.61899014       9.35772882       4.36932183
Cu       8.62024074      11.69610310       6.52736458
Cu      10.74532849       9.36581549       6.55949934
Cu      10.81992910      11.68934333       4.34900635
Cu       8.60678556       9.36882882       8.73477968
Cu       8.62668961      11.71963854      10.91369714
Cu      10.77628712       9.35614538      10.90908330
Cu      10.76693079      11.71073878       8.73323673
Cu       8.64915112       9.38610166      13.08455492
Cu       8.61751904      11.71983715      15.27887715
Cu      10.77097179       9.36096740      15.24989930
Cu      10.78049323      11.70620033      13.09159462
Cu       8.65663574      14.04238530       0.00532701
Cu       8.61886679      16.40959708       2.18715560
Cu      10.75881718      14.04040937       2.17390279
Cu      10.77615440      16.35449387      -0.00394305
Cu       8.62837426      14.01368403       4.35351502
Cu       8.62810867      16.35516260       6.51984620
Cu      10.78995115      14.03152174       6.54084233
Cu      10.79984420      16.39727893       4.34630155
Cu       8.62819874      14.04200136       8.72573762
Cu       8.59560687      16.37304635      10.90853477
Cu      10.79640584      14.04937625      10.93146333
Cu      10.76190886      16.39360847       8.69341079
Cu       8.62088090      14.03871583      13.08452166
Cu       8.61040642      16.36712888      15.26847640
Cu      10.78412806      14.06195607      15.24007528
Cu      10.79072746      16.37956433      13.08094706
Cu      12.93610496       0.00598826      -0.01889951
Cu      12.95409631       2.36233274       2.19101380
Cu      15.07672697      -0.00069409       2.21284686
Cu      15.10363801       2.34554195      -0.00428961
Cu      12.95205529       0.01076778       4.35360053
Cu      12.97555757       2.33645063       6.52218930
Cu      15.06681997      -0.02258119       6.55258645
Cu      15.08471753       2.30087529       4.32351657
Cu      12.94767004      -0.00595481       8.71243222
Cu      12.92806486       2.31523416      10.87887698
Cu      15.10893588       0.00236888      10.91449992
Cu      15.11761592       2.37461158       8.74013359
Cu      12.96886073      -0.00592712      13.06677057
Cu      12.93874702       2.36122772      15.26242498
Cu      15.10202195      -0.00283648      15.27506874
Cu      15.09198008       2.32376121      13.07040774
Cu      12.94176775       4.69011715       0.00571020
Cu      12.94618770       7.01506875       2.17124936
Cu      15.09788524       4.65823263       2.15631309
Cu      15.12134766       7.05049517       0.00552331
Cu      12.94940924       4.64867178       4.34257002
Cu      12.92980205       7.00915368       6.51622340
Cu      15.09311688       4.67472988       6.53621981
Cu      15.07328287       6.99182881       4.36856822
Cu      12.96597523       4.68343305       8.72944960
Cu      12.92930726       7.03547273      10.87648881
Cu      15.11661561       4.66854685      10.93953422
Cu      15.08842542       7.05639183       8.70953454
Cu      12.91953832       4.70587107      13.09511919
Cu      12.91641981       6.99975473      15.26590119
Cu      15.10527239       4.67868367      15.22495010
Cu      15.10551930       7.02019081      13.06962275
Cu      12.95149359       9.36886662       0.02451604
Cu      12.92319465      11.73010170       2.16797597
Cu      15.10538590       9.39071494       2.14595090
Cu      15.08197821      11.72139140       0.03280819
Cu      12.94456877       9.32849967       4.33487615
Cu      12.95013847      11.69465280       6.53136045
Cu      15.11706602       9.37461396       6.51199497
Cu      15.07226779      11.71250635       4.36994709
Cu      12.93675093       9.34008992       8.74614660
Cu      12.96292782      11.70143953      10.88041243
Cu      15.11633735       9.36065151      10.90198926
Cu      15.06054724      11.73944816       8.71393623
Cu      12.91740876       9.37244192      13.05542818
Cu      12.96207773      11.69549005      15.24308501
Cu      15.12254784       9.33888311      15.24089406
Cu      15.09770536      11.71263158      13.08996456
Cu      12.89598333      14.03942795      -0.02050383
Cu      12.90962083      16.41082922       2.16805744
Cu      15.08604260      14.03177765       2.18078842
Cu      15.10308742      16.37249353       0.01692884
Cu      12.92455325      14.05321700       4.35472306
Cu      12.94070646      16.37679708       6.53183082
Cu      15.10432285      14.05595094       6.54351411
Cu      15.07737771      16.37511388       4.35308629
Cu      12.95515022      14.07009389       8.74995035
Cu      12.96799172      16.38926485      10.90228475
Cu      15.09277288      14.04067681      10.91350335
Cu      15.11234777      16.36313962       8.71499257
Cu      12.94284253      14.02566091      13.07722379
Cu      12.96205546      16.39576951      15.30256126
Cu      15.10869521      14.04380333      15.26166567
Cu      15.09022250      16.37665555      13.06350910
