500
Lattice="21.84172649536358 0.0 0.0 0.0 24.263772463818913 0.0 0.0 0.0 24.651773439268723" Properties=species:S:1:pos:R:3 id=sample_000222 pbc="F F F"
Au      -0.00049335      -0.00748405      -0.01566799
Au      -0.03057642       2.44598037       2.45828525
Au       2.18977771       0.01208685       2.48040276
Au       2.19099689       2.41672741       0.00325008
Au       0.01898385       0.01557919       4.92412665
Au       0.00724544       2.42134734       7.41428364
Au       2.17304681       0.00123758       7.40226939
Au       2.17266345       2.44603965       4.92673537
Au      -0.03106901      -0.00031869       9.85155450
Au      -0.01617959       2.43102690      12.32955631
Au       2.19497552      -0.01498413      12.31061010
Au       2.17042950       2.42225152       9.88183200
Au       0.00398132      -0.00104599      14.79805966
Au      -0.01619937       2.42464102      17.26573074
Au       2.18559592       0.00961635      17.25415901
Au       2.19493619       2.42919608      14.77096061
Au      -0.00746401      -0.00923038      19.73099819
Au       0.01724331       2.41910183      22.18041153
Au       2.17054950       0.02119213      22.18888570
Au       2.17469930       2.42968698      19.69570114
Au      -0.01235641       4.86854804      -0.00253279
Au      -0.01211139       7.27786290       2.43739618
Au       2.19494964       4.86895095       2.49083970
Au       2.19530726       7.29496844      -0.01862102
Au       0.00069331       4.87429623       4.92040504
Au      -0.01849796       7.30252348       7.37911915
Au       2.18514997       4.85272090       7.38629935
Au       2.17028600       7.26698025       4.91106953
Au      -0.00371760       4.88066811       9.84456449
Au       0.00620865       7.27557909      12.32897423
Au       2.19805350       4.84386573      12.33678369
Au       2.18648182       7.26106826       9.87960392
Au       0.01030782       4.85210831      14.78791375
Au       0.00512541       7.27370355      17.24100718
Au       2.19439443       4.83930271      17.24775082
Au       2.16713784       7.25744008      14.80564408
Au       0.01174836       4.85793574      19.72170332
Au       0.01266614       7.27218585      22.17417921
Au       2.17784399       4.87696243      22.17827070
Au       2.17984387       7.27790418      19.73963284
Au       0.00855593       9.68418312      -0.00484586
Au      -0.00258278      12.14491015       2.47043617
Au       2.18824787       9.69807291       2.45250355
Au       2.19918360      12.14543081       0.00240318
Au      -0.01066780       9.68283270       4.91632293
Au      -0.01829753      12.13229393       7.37774869
Au       2.18511351       9.70265953       7.40150805
Au       2.17122408      12.12528579       4.94515967
Au       0.00028593       9.70222055       9.85804822
Au       0.00375001      12.14653444      12.33129612
Au       2.17506255       9.73846063      12.34446916
Au       2.20542766      12.11338842       9.87750573
Au       0.03026365       9.67115575      14.78101612
Au       0.00320561      12.14962718      17.26238291
Au       2.14637556       9.70781043      17.28052492
Au       2.18354692      12.11154967      14.76712426
Au      -0.00260489       9.70287763      19.71497265
Au      -0.00654924      12.14505722      22.20129208
Au       2.17214314       9.71843679      22.20100427
Au       2.19356313      12.12878485      19.72595605
Au       0.01674035      14.55743282      -0.00479854
Au       0.01140213      16.97034273       2.46120280
Au       2.18278684      14.56085874       2.45337501
Au       2.19023107      16.97442103      -0.03115017
Au       0.00259723      14.56098834       4.93417567
Au      -0.00029563      16.97336889       7.38222286
Au       2.16319957      14.54211473       7.40432149
Au       2.19166662      16.98095835       4.94172188
Au      -0.00336980      14.54907510       9.83859166
Au       0.00570925      16.99068399      12.33187108
Au       2.18285452      14.54346965      12.32217986
Au       2.15725727      16.96984344       9.83365136
Au       0.01529738      14.54260367      14.79084739
Au       0.02256633      16.98939238      17.26151964
Au       2.18432528      14.54601877      17.26353593
Au       2.20203554      16.99780249      14.80997601
Au       0.01116475      14.52006422      19.71434460
Au      -0.01578077      17.01015307      22.18020056
Au       2.16465527      14.55034323      22.17709813
Au       2.19180986      16.99046607      19.71421839
Au      -0.01043263      19.41951856       0.00408858
Au      -0.00493297      21.82413421       2.45691885
Au       2.18025637      19.40725652       2.44015177
Au       2.19793022      21.82205090       0.00076759
Au       0.00517427      19.40218503       4.91385217
Au      -0.01031572      21.81240732       7.39489223
Au       2.17869063      19.39721261       7.39252962
Au       2.19752683      21.82768817       4.94995216
Au       0.01587795      19.41412254       9.86937108
Au       0.00958948      21.81189889      12.33491027
Au       2.19273605      19.41588413      12.35591716
Au       2.17639907      21.81861357       9.86580003
Au       0.00777457      19.42274729      14.77580328
Au      -0.00511445      21.82466852      17.23530882
Au       2.17164726      19.39396481      17.25346023
Au       2.19360925      21.87518156      14.83297210
Au       0.00043994      19.41338457      19.72127108
Au       0.01157360      21.84196428      22.17612770
Au       2.18870572      19.39952215      22.18075606
Au       2.15599854      21.82206963      19.73951587
Au       4.36737526      -0.02074688       0.00706143
Au       4.33174331       2.38716871       2.45658549
Au       6.51874986      -0.02328448       2.50104459
Au       6.56046117       2.42539660      -0.01987307
Au       4.35381199       0.00200726       4.92252412
Au       4.34975526       2.42491786       7.38987777
Au       6.57139465      -0.00859701       7.39119817
Au       6.53915160       2.42614961       4.91980345
Au       4.35125607       0.00123936       9.86662965
Au       4.35175159       2.43815813      12.32799776
Au       6.53925327       0.00766293      12.32594451
Au       6.55862650       2.40884772       9.85831205
Au       4.36406032       0.00613056      14.79103406
Au       4.37177387       2.44175670      17.23781425
Au       6.55947942      -0.02256342      17.26850700
Au       6.55976937       2.45715869      14.78095257
Au       4.36730373       0.00850538      19.71914879
Au       4.38686514       2.43267844      22.16604917
Au       6.54901752      -0.00795784      22.20825963
Au       6.53468635       2.42822891      19.70632771
Au       4.35761452       4.85534343      -0.01296370
Au       4.35779581       7.29414089       2.46987224
Au       6.56816439       4.85392080       2.47342645
Au       6.57509944       7.28374794      -0.00380100
Au       4.35595014       4.87197844       4.92283160
Au       4.35785520       7.27240801       7.42125665
Au       6.54531580       4.84073099       7.39655888
Au       6.55691528       7.27627930       4.92797839
Au       4.37741660       4.88587961       9.87498006
Au       4.37894653       7.28264129      12.31491422
Au       6.55282307       4.86834656      12.30348277
Au       6.54959784       7.29846640       9.85956547
Au       4.35237972       4.88340063      14.78725286
Au       4.35391770       7.26527852      17.26561301
Au       6.57073142       4.82176478      17.25356309
Au       6.54630154       7.27052328      14.81737287
Au       4.36825253       4.83119018      19.71347249
Au       4.35087486       7.28736241      22.18241309
Au       6.55145538       4.83168687      22.18480935
Au       6.57592042       7.27139320      19.70626050
Au       4.35420562       9.69270393      -0.01456721
Au       4.36237422      12.13419625       2.46533164
Au       6.51590769       9.69814772       2.45883363
Au       6.54024003      12.10137494      -0.00351308
Au       4.38050660       9.70144861       4.94468959
Au       4.35912854      12.11426262       7.41395884
Au       6.56997344       9.69073046       7.38028548
Au       6.55511335      12.13372136       4.94230658
Au       4.38463903       9.70603807       9.87649500
Au       4.37798055      12.10566000      12.32928635
Au       6.57473851       9.71639938      12.32601193
Au       6.52118481      12.12702339       9.86576091
Au       4.36750791       9.71254092      14.78218603
Au       4.38651364      12.11973460      17.28171536
Au       6.56373599       9.72663579      17.26839193
Au       6.57593569      12.15377231      14.76682499
Au       4.34490651       9.69961091      19.70959019
Au       4.36562896      12.15573828      22.19773676
Au       6.56322141       9.69431740      22.19925667
Au       6.55537352      12.11146665      19.70149790
Au       4.37521062      14.53332550      -0.00660005
Au       4.37427466      16.98236494       2.46910475
Au       6.53734551      14.56317137       2.47401237
Au       6.53823040      16.96380266       0.03137180
Au       4.36100785      14.54633043       4.94491972
Au       4.37275429      16.98743399       7.41174379
Au       6.54330748      14.53610541       7.39299611
Au       6.54541059      16.97953961       4.92270942
Au       4.37724374      14.53807181       9.83112057
Au       4.36832231      16.99375650      12.33070014
Au       6.56517427      14.55437476      12.33879513
Au       6.56807715      16.98436620       9.87176317
Au       4.35400076      14.58125522      14.80545430
Au       4.38630710      17.00262128      17.25182740
Au       6.54500765      14.54024646      17.23386550
Au       6.53907371      16.98198076      14.77876787
Au       4.35518571      14.53974497      19.73900868
Au       4.36745575      16.97306402      22.18343649
Au       6.55509445      14.57596940      22.15921351
Au       6.56634825      17.00932951      19.73506089
Au       4.35833892      19.39950867      -0.02538082
Au       4.36780461      21.80740302       2.46743247
Au       6.55034993      19.39971020       2.47403516
Au       6.54301798      21.84394536      -0.00133166
Au       4.37287150      19.39592734       4.95017466
Au       4.34046960      21.85054291       7.39207320
Au       6.55730972      19.40467511       7.41279746
Au       6.56207818      21.82422960       4.95826273
Au       4.33333653      19.41965706       9.85347727
Au       4.34950821      21.84690149      12.31448473
Au       6.54896746      19.39926290      12.32313701
Au       6.56436506      21.86819401       9.87048850
Au       4.37193727      19.41597971      14.80102337
Au       4.35177957      21.82811990      17.25514148
Au       6.54057282      19.40446385      17.25510781
Au       6.55523432      21.83801789      14.75995040
Au       4.37326187      19.38110658      19.73219794
Au       4.36689970      21.83764935      22.18530342
Au       6.55641299      19.42387425      22.20164166
Au       6.57045009      21.84775444      19.70715070
Au       8.73685524       0.01582211      -0.00471486
Au       8.74297973       2.41740846       2.48119298
Au      10.92967185      -0.00369245       2.46536132
Au      10.94407881       2.42082756       0.00450586
Au       8.73334487      -0.00662518       4.93466737
Au       8.73268941       2.42107540       7.38193960
Au      10.92789018       0.00181322       7.41901816
Au      10.90004258       2.42021116       4.93292421
Au       8.74871251      -0.00428232       9.85572610
Au       8.72014636       2.42033057      12.33438850
Au      10.93308701      -0.01863187      12.31817523
Au      10.92483269       2.42095808       9.85398005
Au       8.73939687      -0.00941602      14.81523653
Au       8.73347316       2.42179822      17.27843601
Au      10.91703162       0.00104393      17.23322737
Au      10.92658994       2.43121931      14.80481450
Au       8.73518630      -0.01695573      19.72208541
Au       8.74539563       2.43121896      22.17690687
Au      10.90701295       0.01057967      22.18526286
Au      10.91581293       2.42580016      19.74004855
Au       8.74941280       4.84763189      -0.01163341
Au       8.72528952       7.28222506       2.48606481
Au      10.91458396       4.83681175       2.46063821
Au      10.89686023       7.27990256      -0.00685096
Au       8.73449195       4.88193764       4.91150130
Au       8.74345799       7.26121857       7.36855075
Au      10.92725774       4.84419952       7.36262504
Au      10.94828092       7.28620767       4.91883156
Au       8.72044260       4.84337328       9.85138035
Au       8.74124981       7.27239988      12.32639351
Au      10.92761600       4.83620533      12.33281582
Au      10.93592874       7.26197229       9.86144673
Au       8.72592765       4.86214555      14.80085057
Au       8.73858242       7.26596869      17.24518637
Au      10.92639015       4.85307448      17.26508834
Au      10.92762087       7.26569567      14.77940452
Au       8.72183106       4.84374086      19.70559731
Au       8.72462585       7.27158017      22.18784953
Au      10.90660081       4.89703673      22.18700421
Au      10.91450918       7.25884255      19.71572806
Au       8.76562011       9.68982994       0.03858539
Au       8.74387197      12.14504672       2.46259108
Au      10.92396291       9.70810680       2.46962895
Au      10.90804012      12.13722822       0.01030438
Au       8.70977475       9.70415157       4.94710231
Au       8.71987874      12.11488373       7.40446357
Au      10.93374929       9.69785066       7.37864559
Au      10.93722990      12.12523708       4.93025951
Au       8.72132960       9.74120840       9.85863364
Au       8.74495311      12.11216658      12.33274922
Au      10.94088082       9.68758156      12.33544722
Au      10.90401758      12.12842981       9.87670811
Au       8.73802712       9.70220121      14.77199384
Au       8.74262783      12.12825837      17.23632173
Au      10.93069845       9.72829353      17.27081440
Au      10.92573714      12.13805108      14.79415853
Au       8.74200848       9.73279602      19.73407972
Au       8.73110117      12.14168206      22.21239400
Au      10.91696192       9.67544374      22.18905180
Au      10.93089135      12.15420573      19.70705815
Au       8.74398051      14.58086323       0.02018964
Au       8.73481578      16.98647452       2.45753151
Au      10.92703921      14.56669351       2.49392517
Au      10.91007819      16.99891096      -0.02747641
Au       8.74363097      14.56649314       4.92003177
Au       8.72988206      16.98674276       7.40119361
Au      10.92908916      14.57448855       7.40762548
Au      10.89542904      16.99032344       4.93624755
Au       8.74526148      14.54445760       9.84866963
Au       8.74530748      16.96579303      12.33156746
Au      10.91658350      14.57770590      12.34430993
Au      10.91524264      16.99688992       9.88009778
Au       8.74097211      14.54371048      14.80135007
Au       8.76249993      16.94485632      17.27124623
Au      10.93920705      14.59368528      17.27139150
Au      10.91755368      16.97701275      14.80218829
Au       8.75969223      14.55620939      19.71379999
Au       8.73039014      16.99471300      22.18556209
Au      10.93421739      14.58014842      22.19828792
Au      10.92115946      16.99724783      19.70159462
Au       8.74721131      19.39757692       0.03625145
Au       8.75776156      21.84102651       2.45869410
Au      10.89942458      19.40485498       2.45649327
Au      10.91843131      21.83579090       0.00839627
Au       8.73570741      19.40512441       4.91815562
Au       8.70756864      21.84354923       7.39752414
Au      10.93022918      19.40591447       7.40184904
Au      10.91002887      21.83983704       4.93505746
Au       8.73964430      19.41347986       9.85949246
Au       8.73640793      21.83122887      12.33280511
Au      10.91460558      19.41398240      12.31576366
Au      10.93247656      21.80521405       9.84616055
Au       8.73882813      19.42245815      14.79852914
Au       8.74158672      21.84343331      17.26588301
Au      10.91679754      19.40460221      17.23951791
Au      10.91910847      21.80301104      14.82248521
Au       8.74154420      19.41589959      19.71241108
Au       8.75742562      21.83442856      22.19546616
Au      10.92892264      19.41791220      22.19854039
Au      10.92225593      21.85816966      19.69274401
Au      13.09783699      -0.04451975       0.01417426
Au      13.09752046       2.41949507       2.47780577
Au      15.29289187      -0.00044872       2.47837372
Au      15.29780920       2.43363151       0.04093871
Au      13.09200999       0.01676361       4.93846497
Au      13.10422098       2.41570335       7.39801212
Au      15.28131945       0.00765918       7.40097814
Au      15.31384833       2.41853226       4.94356417
Au      13.11688868      -0.00022394       9.84781108
Au      13.10010581       2.38672664      12.34427426
Au      15.26611788      -0.00532885      12.32272597
Au      15.28569330       2.42667143       9.86887922
Au      13.09321386       0.01292971      14.81254993
Au      13.12788486       2.45839742      17.23329782
Au      15.28817825      -0.00926135      17.27903779
Au      15.30932051       2.43236744      14.76633699
Au      13.11030888      -0.00410937      19.69922571
Au      13.08350799       2.41974528      22.18417263
Au      15.30330296       0.00945891      22.19565110
Au      15.30981002       2.40333079      19.70331313
Au      13.11066043       4.85286999      -0.01638201
Au      13.09241742       7.26733231       2.47824178
Au      15.29762449       4.84143967       2.45905704
Au      15.27560159       7.26770086      -0.00771995
Au      13.10147023       4.83800466       4.91607085
Au      13.11266025       7.26692992       7.38739098
Au      15.28608739       4.84519201       7.39101040
Au      15.29663931       7.28016355       4.94870026
Au      13.10488215       4.85618665       9.86782176
Au      13.09073981       7.29531929      12.35248808
Au      15.29933761       4.83172097      12.33500032
Au      15.26995143       7.25400487       9.84486002
Au      13.11820978       4.86440176      14.78265733
Au      13.10202042       7.26560568      17.24521422
Au      15.29922655       4.86145916      17.24421319
Au      15.26197378       7.29437120      14.78389453
Au      13.09443521       4.85080826      19.70954956
Au      13.10672797       7.29952147      22.17373061
Au      15.30434464       4.84614551      22.18620799
Au      15.29217673       7.25073341      19.73048385
Au      13.11872573       9.69935065       0.01144535
Au      13.10304829      12.13416368       2.45062645
Au      15.27278982       9.69920703       2.47522747
Au      15.26858946      12.12630862       0.02959100
Au      13.09924223       9.67904350       4.95283282
Au      13.10532460      12.13859892       7.42044322
Au      15.27079950       9.71906942       7.41735602
Au      15.28526329      12.13650673       4.93322340
Au      13.06843545       9.70359169       9.85777721
Au      13.08571331      12.11333226      12.30365882
Au      15.28172812       9.71601729      12.32127325
Au      15.28897605      12.14272611       9.84570668
Au      13.11772248       9.70955568      14.81653575
Au      13.10399658      12.16056003      17.25243018
Au      15.30071252       9.68277762      17.26996170
Au      15.27778088      12.12564362      14.79063284
Au      13.09976081       9.70880369      19.72247141
Au      13.11380927      12.13729037      22.15180922
Au      15.28605425       9.71621997      22.20257803
Au      15.28033965      12.13367997      19.72338741
Au      13.09007097      14.54578708      -0.00356345
Au      13.12408872      16.97235076       2.45487204
Au      15.27329851      14.54961265       2.44734082
Au      15.28855010      17.01988939       0.01010639
Au      13.12732496      14.55206601       4.90608089
Au      13.09720243      16.96947783       7.40647292
Au      15.26717780      14.53479561       7.41231264
Au      15.29319952      16.97926841       4.92954879
Au      13.11210220      14.54654932       9.88399286
Au      13.11588971      17.00639462      12.35198153
Au      15.29245443      14.56089587      12.33103042
Au      15.28154851      16.95974225       9.88948809
Au      13.12122544      14.55560545      14.80266132
Au      13.11120639      16.98477571      17.25380670
Au      15.26985921      14.55226064      17.27004886
Au      15.26231592      16.99375567      14.78103165
Au      13.14083170      14.53028779      19.72026544
Au      13.08869071      16.98538766      22.21447722
Au      15.30284477      14.56069173      22.19818356
Au      15.26763732      16.97297421      19.74155026
Au      13.12797011      19.39439366      -0.00111612
Au      13.11389126      21.85284906       2.47095197
Au      15.26764167      19.42516321       2.45228470
Au      15.28170542      21.83290077       0.01250636
Au      13.11895430      19.42106271       4.90390468
Au      13.11215560      21.83602904       7.40228686
Au      15.27327211      19.42009566       7.38895813
Au      15.28054399      21.83764800       4.91931836
Au      13.08604840      19.40871578       9.87719447
Au      13.07407573      21.85339662      12.31521755
Au      15.28632094      19.40481647      12.31880599
Au      15.28172526      21.83268601       9.86323679
Au      13.11030843      19.40029601      14.76458698
Au      13.12387191      21.83336561      17.26266507
Au      15.27935672      19.38324062      17.27275190
Au      15.31589254      21.82046204      14.80887534
Au      13.11481116      19.40687941      19.72124154
Au      13.07942842      21.82546665      22.17650624
Au      15.28474610      19.40542753      22.19947208
Au      15.30596786      21.82623383      19.70853571
Au      17.46215985       0.00473395      -0.00141129
Au      17.48033527       2.42928234       2.47337345
Au      19.64944659       0.01944792       2.44764948
Au      19.65176166       2.46542049      -0.00296622
Au      17.47608366       0.00046007       4.93578170
Au      17.46572100       2.42596003       7.40963993
Au      19.66221909       0.00978351       7.42626152
Au      19.65049804       2.43503152       4.93938599
Au      17.46277460      -0.00258709       9.88615244
Au      17.48533578       2.43128845      12.31617212
Au      19.65443442       0.01852359      12.31304926
Au      19.66820218       2.43232756       9.85739167
Au      17.46838689      -0.01004843      14.78974056
Au      17.48143293       2.41724491      17.22938330
Au      19.66248403      -0.00078890      17.25766423
Au      19.66464072       2.44990275      14.79193329
Au      17.47796433       0.00162814      19.72569841
Au      17.45999688       2.44159563      22.17866797
Au      19.65929624      -0.01486607      22.20243931
Au      19.65069867       2.45785479      19.72249790
Au      17.47253542       4.83977366       0.01503079
Au      17.47251386       7.28150985       2.47476188
Au      19.67168635       4.83706692       2.50399277
Au      19.65226971       7.29185249       0.00552707
Au      17.46614367       4.86074116       4.92053162
Au      17.47810242       7.29948991       7.40921519
Au      19.66500225       4.86172152       7.39445806
Au      19.65649913       7.27880171       4.92482124
Au      17.49346348       4.86787548       9.86692392
Au      17.50105846       7.30073801      12.34080693
Au      19.65425289       4.86403978      12.31766119
Au      19.65788202       7.27078507       9.87788096
Au      17.46095415       4.83380928      14.79730940
Au      17.46447390       7.27778322      17.25575725
Au      19.66483228       4.85178859      17.27059044
Au      19.64154484       7.25446201      14.77977716
Au      17.47508641       4.83605373      19.74042160
Au      17.46551875       7.24847777      22.17205635
Au      19.68605526       4.81768686      22.18365862
Au      19.64442136       7.25567530      19.70048468
Au      17.48083605       9.70326588      -0.02706317
Au      17.48095265      12.13795651       2.46226253
Au      19.67599285       9.72630279       2.44483204
Au      19.66162213      12.12842502      -0.00702850
Au      17.47652786       9.73408642       4.93484372
Au      17.46677907      12.14416667       7.40252898
Au      19.63932747       9.73237501       7.39403727
Au      19.67477757      12.16713802       4.92627421
Au      17.47850085       9.71023216       9.88200485
Au      17.46458306      12.14468459      12.33090616
Au      19.66168152       9.69983293      12.35195083
Au      19.65302902      12.10161010       9.87245238
Au      17.45904965       9.70385825      14.80123428
Au      17.46712787      12.12969159      17.24147168
Au      19.66051911       9.73305954      17.27417082
Au      19.65135076      12.13044833      14.79190182
Au      17.47074511       9.70731165      19.72118634
Au      17.49068788      12.12690519      22.21205762
Au      19.66183475       9.71365889      22.18770622
Au      19.64933556      12.14618050      19.69833083
Au      17.47560203      14.56274397      -0.01918661
Au      17.49534551      17.01492499       2.46485440
Au      19.65261822      14.54405617       2.47395063
Au      19.66833138      16.98272944       0.00340001
Au      17.47487030      14.57384641       4.95023535
Au      17.49089617      16.98909404       7.38845724
Au      19.66545526      14.53746821       7.39715847
Au      19.67244232      17.00659813       4.93156868
Au      17.45588214      14.55070982       9.86325875
Au      17.48285683      16.97872774      12.33262573
Au      19.65313384      14.54802304      12.32155726
Au      19.67477281      16.99711172       9.84844340
Au      17.47072209      14.55065647      14.81412658
Au      17.46931374      16.98092485      17.25506655
Au      19.64691654      14.57097171      17.26137633
Au      19.66979955      16.97685157      14.75785207
Au      17.49293763      14.56683606      19.73139575
Au      17.45348698      16.98299989      22.17839810
Au      19.64631233      14.56346391      22.19614116
Au      19.63438500      16.96434450      19.73773322
Au      17.47757150      19.40762986       0.00114244
Au      17.46264265      21.85447925       2.47287742
Au      19.63276032      19.38304884       2.45900031
Au      19.64927956      21.82418814      -0.01440012
Au      17.48335283      19.40949706       4.90961453
Au      17.48373816      21.84144196       7.40140069
Au      19.65533200      19.40867725       7.35330376
Au      19.64755240      21.84238886       4.95166003
Au      17.48470429      19.39973289       9.88843589
Au      17.49300456      21.84170719      12.30663600
Au      19.64152434      19.41369356      12.34300323
Au      19.66969885      21.83693825       9.84846895
Au      17.46871673      19.40901915      14.79744900
Au      17.48033211      21.84741843      17.28058432
Au      19.67502999      19.40901436      17.27972253
Au      19.66726859      21.82096184      14.79245362
Au      17.48397394      19.42075098      19.73337182
Au      17.46375000      21.82824835      22.20362652
Au      19.63045817      19.38850879      22.15506349
Au      19.64150224      21.83392838      19.70793065
