7
Lattice="74.55475242147702 0.0 0.0 0.0 74.55475242147702 0.0 0.0 0.0 74.55475242147702" Properties=species:S:1:pos:R:3:initial_magmoms:R:1 id=sample_001311 pbc="T T T"
Fe      36.68604648      36.65271356      36.64811841       2.30000000
Fe      38.10404448      38.10103134      35.19405197       2.30000000
Fe      38.13261211      35.22108602      38.10232635       2.30000000
Fe      39.52078881      36.65570666      36.64994799       2.30000000
Fe      35.23456349      38.09739757      38.09389076       2.30000000
Fe      36.59560072      39.53414951      36.65913806       2.30000000
Fe      36.68549418      36.64931154      39.56650469       2.30000000
