148
Lattice="155.5717581216408 0.0 0.0 0.0 155.5717581216408 0.0 0.0 0.0 155.5717581216408" Properties=species:S:1:pos:R:3:initial_magmoms:R:1 id=sample_001800 pbc="T T T"
Fe      75.00792730      75.00640509      75.03630309       2.30000000
Fe      76.45178384      76.45394647      73.57168881       2.30000000
Fe      77.89553966      77.89489335      72.14436659       2.30000000
Fe      79.30703918      79.30466179      70.70460999       2.30000000
Fe      80.75279340      80.73099891      69.26990922       2.30000000
Fe      82.17648715      82.16790954      67.84731882       2.30000000
Fe      83.60267526      83.60239905      66.42110337       2.30000000
Fe      76.43570129      73.57051458      76.46117073       2.30000000
Fe      77.89842153      74.99989705      75.01668932       2.30000000
Fe      79.31725419      76.43985589      73.58741850       2.30000000
Fe      80.74136829      77.88055798      72.15384944       2.30000000
Fe      82.20488333      79.32868887      70.70706527       2.30000000
Fe      83.60874614      80.75981320      69.29538066       2.30000000
Fe      85.03394105      82.17235555      67.85609390       2.30000000
Fe      77.87250268      72.13166679      77.89985966       2.30000000
Fe      79.31881055      73.58608752      76.44384934       2.30000000
Fe      80.74727630      75.02804387      75.01049861       2.30000000
Fe      82.18435327      76.46439340      73.59836195       2.30000000
Fe      83.61798301      77.89089462      72.15004294       2.30000000
Fe      85.06441436      79.32105898      70.70706737       2.30000000
Fe      79.33241884      70.71732502      79.29520970       2.30000000
Fe      80.74874887      72.14398290      77.88297099       2.30000000
Fe      82.17586573      73.55648347      76.44947062       2.30000000
Fe      83.61269414      75.00939107      75.03595724       2.30000000
Fe      85.05652982      76.45792179      73.56875716       2.30000000
Fe      86.45735972      77.89191442      72.16487861       2.30000000
Fe      80.75434448      69.29286605      80.75738687       2.30000000
Fe      82.18165158      70.72874049      79.32261634       2.30000000
Fe      83.61671179      72.14777070      77.88689127       2.30000000
Fe      85.06711309      73.56863651      76.44698771       2.30000000
Fe      86.49031518      75.02489224      75.01566717       2.30000000
Fe      82.19688584      67.85715145      82.17172326       2.30000000
Fe      83.62792974      69.29084110      80.77399576       2.30000000
Fe      85.05736513      70.72224584      79.29341256       2.30000000
Fe      86.47565986      72.15656619      77.89512214       2.30000000
Fe      83.61618485      66.41594136      83.61708121       2.30000000
Fe      85.05417546      67.85150823      82.18450075       2.30000000
Fe      73.57211819      76.42558716      76.43996345       2.30000000
Fe      75.01120504      77.88852369      75.01496369       2.30000000
Fe      76.46387185      79.30298623      73.60718662       2.30000000
Fe      77.87970718      80.73724757      72.12997166       2.30000000
Fe      79.29941437      82.19552265      70.70612640       2.30000000
Fe      80.75918352      83.63896892      69.28515850       2.30000000
Fe      82.17857121      85.05428450      67.85157097       2.30000000
Fe      75.01398301      75.02434169      77.87213262       2.30000000
Fe      76.45796050      76.45726853      76.44791954       2.30000000
Fe      77.88017191      77.88212168      75.03193303       2.30000000
Fe      79.33173202      79.31972195      73.58109611       2.30000000
Fe      80.74908175      80.75335038      72.14739227       2.30000000
Fe      82.18545215      82.18525383      70.71791219       2.30000000
Fe      83.61166719      83.60478293      69.29697324       2.30000000
Fe      76.45192587      73.58164987      79.31916663       2.30000000
Fe      77.89275343      75.02140716      77.88430115       2.30000000
Fe      79.32802896      76.45093514      76.45096611       2.30000000
Fe      80.73235357      77.87774561      75.01457387       2.30000000
Fe      82.17483134      79.32193440      73.56821675       2.30000000
Fe      83.61394034      80.73145300      72.15670126       2.30000000
Fe      77.88727983      72.14899782      80.74386824       2.30000000
Fe      79.32034123      73.58199900      79.28633568       2.30000000
Fe      80.75031295      75.02513839      77.89371808       2.30000000
Fe      82.19276870      76.44778041      76.45080244       2.30000000
Fe      83.61546286      77.87864729      75.02718255       2.30000000
Fe      79.33492361      70.71675368      82.19815083       2.30000000
Fe      80.74614859      72.13737863      80.75639152       2.30000000
Fe      82.18576326      73.57985057      79.31682567       2.30000000
Fe      83.62399061      75.02474739      77.87327263       2.30000000
Fe      80.76784417      69.25985220      83.61275174       2.30000000
Fe      82.18945731      70.71645237      82.19148528       2.30000000
Fe      83.62219188      72.15590491      80.75063395       2.30000000
Fe      82.17828810      67.84084715      85.06726076       2.30000000
Fe      83.61723913      69.28718969      83.63552168       2.30000000
Fe      72.15560336      77.88698940      77.88025897       2.30000000
Fe      73.57885253      79.32513261      76.44445770       2.30000000
Fe      75.01011002      80.73802191      75.01061474       2.30000000
Fe      76.46696382      82.17649187      73.57393978       2.30000000
Fe      77.87848306      83.61886857      72.15650046       2.30000000
Fe      79.31625123      85.02974446      70.72789794       2.30000000
Fe      73.58579725      76.46271892      79.30619939       2.30000000
Fe      75.03018212      77.87971600      77.87178511       2.30000000
Fe      76.44466817      79.33178638      76.45577546       2.30000000
Fe      77.87393721      80.74865775      75.02465475       2.30000000
Fe      79.31369240      82.17282215      73.57983725       2.30000000
Fe      80.73342952      83.60592657      72.13315580       2.30000000
Fe      74.99898907      75.00941727      80.73920018       2.30000000
Fe      76.44857144      76.44838521      79.33754883       2.30000000
Fe      77.88517332      77.88544225      77.90322857       2.30000000
Fe      79.31686590      79.31053778      76.45101371       2.30000000
Fe      80.75162714      80.73419697      75.01079578       2.30000000
Fe      76.44206770      73.58497740      82.19666265       2.30000000
Fe      77.87504704      75.01141714      80.72693610       2.30000000
Fe      79.31272294      76.43071281      79.30812171       2.30000000
Fe      80.74578175      77.88124877      77.87476958       2.30000000
Fe      77.88100280      72.15508077      83.62490808       2.30000000
Fe      79.30336447      73.58520045      82.18229636       2.30000000
Fe      80.74339481      75.00694439      80.75365134       2.30000000
Fe      79.30781862      70.72304033      85.04140766       2.30000000
Fe      80.75912718      72.14031487      83.60482206       2.30000000
Fe      70.71970849      79.30412411      79.30541610       2.30000000
Fe      72.13813941      80.73736926      77.88469792       2.30000000
Fe      73.57250869      82.17894381      76.46219650       2.30000000
Fe      75.02357027      83.62282815      75.03496123       2.30000000
Fe      76.43541297      85.04299513      73.57106227       2.30000000
Fe      77.89997324      86.48104242      72.16282209       2.30000000
Fe      72.12576752      77.88993169      80.74645384       2.30000000
Fe      73.58002158      79.32408835      79.31137956       2.30000000
Fe      75.00059386      80.75103878      77.87723733       2.30000000
Fe      76.44458075      82.20035355      76.44524533       2.30000000
Fe      77.87759421      83.62052502      75.00697842       2.30000000
Fe      73.56906524      76.47273533      82.18510223       2.30000000
Fe      75.01122551      77.89486273      80.75745928       2.30000000
Fe      76.45328055      79.32878785      79.31387831       2.30000000
Fe      77.87753334      80.76754555      77.87751728       2.30000000
Fe      75.02175222      75.01017600      83.60807621       2.30000000
Fe      76.44800784      76.45614522      82.17351111       2.30000000
Fe      77.88279398      77.87903449      80.75255952       2.30000000
Fe      79.32305910      79.31086225      79.31606301       2.30000000
Fe      76.44992460      73.57785287      85.05345209       2.30000000
Fe      77.89736675      75.01550929      83.62035794       2.30000000
Fe      77.87280091      72.17236605      86.48041618       2.30000000
Fe      69.27909367      80.74533910      80.75864771       2.30000000
Fe      70.70795813      82.17673795      79.30340665       2.30000000
Fe      72.14784899      83.61722218      77.88600330       2.30000000
Fe      73.58109450      85.04811009      76.46639897       2.30000000
Fe      75.02901729      86.48218594      75.02394685       2.30000000
Fe      70.72815454      79.33923131      82.17413375       2.30000000
Fe      72.15559718      80.76197396      80.73379155       2.30000000
Fe      73.58355965      82.18763698      79.33966536       2.30000000
Fe      75.02938059      83.63124784      77.90001970       2.30000000
Fe      72.13654517      77.87252708      83.61353400       2.30000000
Fe      73.58636205      79.32124791      82.18691325       2.30000000
Fe      75.00960021      80.74450763      80.73827349       2.30000000
Fe      73.58776214      76.44434015      85.04659947       2.30000000
Fe      75.01699815      77.89707072      83.62999050       2.30000000
Fe      74.99335256      75.01581716      86.48487056       2.30000000
Fe      67.84542068      82.20048078      82.17271184       2.30000000
Fe      69.27466734      83.61880037      80.74303448       2.30000000
Fe      70.71558530      85.03590031      79.31900115       2.30000000
Fe      72.14169676      86.50011535      77.87392760       2.30000000
Fe      69.30444518      80.76206581      83.61446138       2.30000000
Fe      70.71670933      82.18673545      82.19006782       2.30000000
Fe      72.14848159      83.61692176      80.73971827       2.30000000
Fe      70.73280971      79.31452738      85.04743158       2.30000000
Fe      72.15245583      80.75687748      83.60832993       2.30000000
Fe      72.15701038      77.86690036      86.47108678       2.30000000
Fe      66.41631695      83.61304925      83.61278657       2.30000000
Fe      67.85636816      85.04679772      82.18838893       2.30000000
Fe      67.85023180      82.18170191      85.05672914       2.30000000
Fe      69.29108875      83.60412769      83.61684064       2.30000000
