256
Lattice="25.546737749700622 0.0 0.0 0.0 24.662070801888746 0.0 0.0 0.0 23.64750953941905" Properties=species:S:1:pos:R:3 id=sample_000920 pbc="F F F"
Si      -0.01248037      -0.00391818      -0.03104947
Si      -0.00954458       3.09286912       2.94816021
Si       3.19179861      -0.01547978       2.94780705
Si       3.18231104       3.06568177       0.00008112
Si      -0.01149579       0.01922029       5.92115044
Si       0.02124002       3.07537126       8.88209388
Si       3.19779887      -0.01875007       8.89051615
Si       3.20035196       3.07506816       5.91011276
Si       0.00942526       0.00782470      11.83377038
Si       0.01141604       3.09564960      14.77372691
Si       3.20193233       0.00825697      14.76440002
Si       3.19170475       3.10482004      11.81951806
Si      -0.03060748      -0.03568848      17.77682150
Si       0.00315953       3.06673345      20.68772258
Si       3.17271737       0.01840055      20.69503496
Si       3.21068194       3.10348066      17.73235597
Si      -0.01775765       6.18416643       0.00622991
Si       0.01517592       9.25946250       2.95795784
Si       3.17458073       6.15655893       2.95956104
Si       3.21433999       9.24107703       0.03059478
Si       0.01749064       6.16389310       5.91299089
Si      -0.01346562       9.25591805       8.89342283
Si       3.16238665       6.17897241       8.86054989
Si       3.19173430       9.24661510       5.92511487
Si       0.01152151       6.16750438      11.81873799
Si      -0.03939643       9.23829749      14.77451793
Si       3.20992690       6.12610078      14.79122119
Si       3.17220128       9.21801786      11.81156986
Si      -0.02910465       6.18312529      17.70886744
Si      -0.02634519       9.23126051      20.69261668
Si       3.21276384       6.18977017      20.69797916
Si       3.19351458       9.24811967      17.74076240
Si       0.01851057      12.32487112      -0.02456113
Si       0.00212941      15.42402295       2.98501582
Si       3.17881225      12.35651721       2.95029836
Si       3.20495135      15.43531823      -0.00119730
Si      -0.02523566      12.32703985       5.95580032
Si      -0.01646373      15.45212158       8.88335510
Si       3.17920810      12.32560701       8.86328017
Si       3.19411356      15.42708758       5.87065622
Si      -0.00617865      12.31335229      11.82955104
Si      -0.00592708      15.41542702      14.77966832
Si       3.19477919      12.31160381      14.78272999
Si       3.19831125      15.40728076      11.80811058
Si       0.01058542      12.30349871      17.74850286
Si      -0.01498880      15.42765635      20.67709673
Si       3.19140865      12.30445542      20.69611080
Si       3.19512690      15.41009312      17.73811520
Si       0.01768277      18.47185500       0.01469066
Si       0.01313934      21.56983069       2.98597801
Si       3.22055781      18.49344035       2.94372280
Si       3.21032872      21.60885347      -0.03005024
Si       0.00850853      18.48651508       5.93149197
Si       0.01583751      21.57940695       8.86217975
Si       3.22809526      18.49377151       8.85693928
Si       3.19955621      21.60833316       5.91728506
Si      -0.02901348      18.47529495      11.82608732
Si      -0.04964007      21.58348728      14.78329082
Si       3.22897796      18.49351855      14.75488013
Si       3.15379149      21.55622789      11.79968523
Si      -0.02461155      18.47835126      17.74035747
Si       0.00047707      21.60247384      20.72193668
Si       3.19842274      18.45589726      20.68222760
Si       3.18806222      21.55760476      17.73254412
Si       6.36487670      -0.01075677       0.02694771
Si       6.39226435       3.08995788       2.94208699
Si       9.55993044       0.01936747       2.96264765
Si       9.59867584       3.12066589      -0.01783050
Si       6.38286311      -0.02272467       5.91807360
Si       6.39163013       3.09200133       8.87495317
Si       9.57659113      -0.01211284       8.83725835
Si       9.58484096       3.06794954       5.87896894
Si       6.35738327       0.03002521      11.80183785
Si       6.40619424       3.11533672      14.79619994
Si       9.59273516      -0.00126497      14.77576789
Si       9.59293328       3.11557666      11.83612712
Si       6.37712678       0.01119110      17.74115522
Si       6.40032867       3.12104592      20.67966334
Si       9.56540582       0.01730397      20.69219890
Si       9.57549001       3.07782809      17.72971810
Si       6.38727853       6.16964046       0.01114702
Si       6.38223671       9.25529835       2.96689307
Si       9.57269636       6.15658944       2.92395354
Si       9.60310518       9.26651190       0.01509410
Si       6.41237361       6.15138301       5.90933104
Si       6.36855056       9.24684631       8.88085439
Si       9.61350575       6.16371010       8.85655549
Si       9.57809543       9.25780569       5.90115128
Si       6.40768390       6.16100776      11.84083545
Si       6.41292204       9.23425605      14.80859860
Si       9.60355991       6.14986619      14.77690292
Si       9.58064961       9.24206454      11.82416789
Si       6.35145194       6.16644704      17.73294271
Si       6.37984350       9.23997160      20.68595474
Si       9.59105376       6.14550040      20.68695601
Si       9.60642595       9.23611610      17.75042735
Si       6.38524068      12.29274691       0.00482839
Si       6.42406473      15.42194187       2.96171445
Si       9.56529795      12.29960453       2.95589472
Si       9.54125742      15.38592559       0.02432966
Si       6.38969024      12.33199433       5.88489188
Si       6.39209553      15.38166076       8.88549372
Si       9.56894302      12.30523736       8.84720770
Si       9.57565781      15.39491287       5.92344862
Si       6.37074603      12.32848532      11.84779090
Si       6.36197229      15.44882994      14.78300007
Si       9.55627643      12.31648384      14.80672762
Si       9.57600596      15.41538031      11.83704062
Si       6.37028347      12.38787394      17.71450293
Si       6.40370644      15.40424505      20.69817049
Si       9.58210821      12.31854450      20.68123884
Si       9.60106744      15.40239161      17.72519591
Si       6.37688466      18.51779549       0.00100607
Si       6.36744771      21.58510005       2.97870112
Si       9.59610556      18.50849551       2.98061066
Si       9.59361162      21.56947674       0.01054196
Si       6.38575338      18.49909660       5.93375745
Si       6.39934613      21.57724489       8.85425959
Si       9.56713189      18.48361627       8.85781498
Si       9.58640229      21.58529037       5.90571679
Si       6.41596399      18.50390059      11.84442076
Si       6.36845734      21.56356037      14.80098360
Si       9.56197994      18.50481065      14.77299142
Si       9.56381961      21.55384103      11.83817162
Si       6.37538187      18.48520274      17.72507137
Si       6.35906001      21.55844383      20.66682303
Si       9.57468194      18.50554543      20.68871135
Si       9.58395487      21.56829006      17.74314683
Si      12.77363549      -0.00506652      -0.00762547
Si      12.73912660       3.06576555       2.94035641
Si      15.96548410       0.00748652       2.93734236
Si      15.95936033       3.10095422       0.01889195
Si      12.79537254      -0.01996055       5.91484482
Si      12.75696404       3.09531527       8.84133828
Si      15.96571823      -0.01200357       8.87002075
Si      15.96867052       3.07177095       5.89128548
Si      12.79882964      -0.00383150      11.80089402
Si      12.76789923       3.08515637      14.76266181
Si      15.95910415      -0.00896262      14.78857026
Si      15.99140326       3.09820953      11.82930564
Si      12.75703814       0.00298574      17.75240391
Si      12.79178036       3.07200292      20.70776505
Si      15.97579925      -0.01901070      20.69588166
Si      15.96013166       3.06924315      17.73989362
Si      12.79574656       6.15672055       0.01621925
Si      12.75906527       9.23183244       2.93233715
Si      15.95650303       6.14765141       2.94445541
Si      15.95302257       9.23591036       0.00310913
Si      12.78384570       6.12923141       5.90506916
Si      12.74769760       9.24525643       8.87929101
Si      15.96150619       6.14649245       8.83758506
Si      15.98726172       9.24140844       5.91395096
Si      12.77916418       6.17715617      11.81242354
Si      12.78080048       9.22998815      14.77255703
Si      15.97848601       6.17669616      14.79012691
Si      15.98971701       9.25597291      11.81162206
Si      12.76754395       6.15560878      17.75759705
Si      12.80482499       9.28897904      20.71009356
Si      15.99691831       6.16415311      20.70633610
Si      15.97851910       9.23346753      17.74063740
Si      12.77604379      12.30496771      -0.03344592
Si      12.76462169      15.43688350       2.98628063
Si      15.95876020      12.33901961       2.94989687
Si      15.96833132      15.40939201      -0.00070818
Si      12.77684117      12.34217894       5.90415834
Si      12.76602766      15.43433111       8.85859841
Si      15.94610176      12.33210230       8.85171639
Si      15.96361117      15.41083861       5.90581986
Si      12.77702207      12.34919434      11.79581083
Si      12.74922699      15.42883222      14.76671325
Si      15.94490060      12.31113041      14.78286948
Si      15.90625163      15.38845756      11.81849798
Si      12.79400088      12.32066331      17.72763980
Si      12.79760089      15.41731261      20.68242930
Si      15.97091557      12.30696229      20.68225185
Si      15.95358479      15.40619478      17.74456232
Si      12.77079928      18.50650175       0.01166459
Si      12.76439627      21.59888556       2.96965209
Si      15.96219286      18.48386393       2.93561588
Si      15.98860017      21.61480112      -0.00265784
Si      12.77404398      18.47709398       5.92359141
Si      12.77333300      21.57898443       8.84594191
Si      15.99271292      18.51073448       8.87286414
Si      15.95841782      21.57947282       5.90971806
Si      12.77032940      18.47278516      11.80802090
Si      12.78597848      21.57373171      14.77746081
Si      15.97521026      18.49353797      14.75853165
Si      15.98962536      21.58536841      11.81390430
Si      12.77134783      18.49987773      17.73744122
Si      12.73892270      21.60930578      20.65859976
Si      15.96408781      18.50158419      20.67669206
Si      15.98855784      21.55759013      17.71650899
Si      19.16845505      -0.00999195      -0.00276081
Si      19.15501130       3.08846908       2.96142222
Si      22.38212464       0.01662956       2.95764522
Si      22.33616900       3.09742857      -0.02065505
Si      19.16725292       0.02952296       5.90138028
Si      19.14861792       3.10505160       8.85792810
Si      22.35214745       0.00006643       8.87073076
Si      22.35759700       3.07784300       5.90810062
Si      19.16241171       0.00873438      11.78336389
Si      19.15843550       3.08954538      14.77682726
Si      22.39265005       0.01254508      14.78162989
Si      22.35263501       3.07158708      11.84272862
Si      19.14490316      -0.00561589      17.71923758
Si      19.16292318       3.07662572      20.70939661
Si      22.35336932       0.00857412      20.70790605
Si      22.35588797       3.11282067      17.73699562
Si      19.15345996       6.15611617       0.02780994
Si      19.19101840       9.26317756       2.98137017
Si      22.35466174       6.17280557       2.94247480
Si      22.33227989       9.25158000       0.02215071
Si      19.18092947       6.17416415       5.88809826
Si      19.18887248       9.26445189       8.88663975
Si      22.36581811       6.14733665       8.85784096
Si      22.33778439       9.24752607       5.90708241
Si      19.15346192       6.16232675      11.80263386
Si      19.17142583       9.21498849      14.79809919
Si      22.35824586       6.15592140      14.77689452
Si      22.32138555       9.25434687      11.80570394
Si      19.11987061       6.16566063      17.69557972
Si      19.14492166       9.24706377      20.66095479
Si      22.36556192       6.17803971      20.69348415
Si      22.34040750       9.25296009      17.70514971
Si      19.16181263      12.33840330       0.00125387
Si      19.18713270      15.42017371       2.96787971
Si      22.35715278      12.30272835       2.94520517
Si      22.32859056      15.39092119      -0.00192886
Si      19.18806637      12.32610337       5.89990102
Si      19.14977027      15.39595020       8.85705457
Si      22.39383932      12.31270655       8.88738229
Si      22.38440992      15.40820846       5.92079410
Si      19.15148935      12.34726712      11.83574269
Si      19.16780906      15.41593848      14.76051793
Si      22.33324700      12.33993341      14.78559428
Si      22.33686186      15.40495292      11.81152084
Si      19.15468623      12.32202833      17.70065894
Si      19.15970946      15.37319521      20.69915687
Si      22.38218568      12.32068430      20.67833087
Si      22.33935399      15.39771161      17.71004562
Si      19.16723127      18.51450386       0.00516074
Si      19.15072627      21.58794002       2.95298068
Si      22.36490804      18.46644172       2.95828482
Si      22.34517379      21.61242541      -0.01689582
Si      19.17558452      18.52129178       5.91479151
Si      19.13586058      21.58821117       8.85770328
Si      22.34268649      18.49096981       8.84686377
Si      22.32422484      21.56337836       5.91617416
Si      19.15001381      18.48727413      11.81982624
Si      19.16393264      21.58693944      14.74862469
Si      22.36270934      18.48629835      14.77816691
Si      22.33094421      21.56797682      11.81247244
Si      19.16523299      18.48189526      17.73153460
Si      19.16149426      21.59167659      20.71191829
Si      22.30208252      18.50204345      20.68214390
Si      22.34603715      21.57611476      17.75071765
