256
Lattice="15.083742258772643 0.0 0.0 0.0 13.791919985870383 0.0 0.0 0.0 14.789962413532562" Properties=species:S:1:pos:R:3 id=sample_000963 pbc="F F F"
Cu       0.00797895      -0.00455826      -0.00161618
Cu       0.00284675       1.73747928       1.85111118
Cu       1.89414740       0.00431434       1.82477056
Cu       1.88906931       1.74338557      -0.01102118
Cu      -0.01816080      -0.00811201       3.69322189
Cu       0.01137345       1.73676999       5.55486857
Cu       1.87224217       0.00816632       5.55934966
Cu       1.88388463       1.71895820       3.69735853
Cu      -0.00740232       0.01511473       7.38505565
Cu      -0.01345198       1.72224954       9.24274803
Cu       1.87577501       0.00405356       9.24595762
Cu       1.88309538       1.70974818       7.39686344
Cu       0.00107363       0.00353591      11.09676825
Cu       0.01301172       1.71267363      12.93421070
Cu       1.87903530      -0.01030353      12.94216188
Cu       1.89218882       1.71401286      11.09488458
Cu       0.00255680       3.45470995      -0.00280865
Cu       0.01087368       5.18138358       1.85725310
Cu       1.85738667       3.43878954       1.84747714
Cu       1.88774874       5.16275766       0.02261970
Cu       0.02017196       3.44348560       3.69734034
Cu      -0.00303411       5.14493419       5.57037026
Cu       1.89504078       3.44564160       5.53545799
Cu       1.86702532       5.19251806       3.69962181
Cu       0.01088754       3.44566318       7.40296428
Cu      -0.01311194       5.15705699       9.24115417
Cu       1.88001879       3.44500431       9.24293670
Cu       1.88673849       5.17050478       7.39953764
Cu      -0.00232502       3.44013057      11.09787962
Cu      -0.01662164       5.18045282      12.94051830
Cu       1.86744877       3.46230269      12.94477487
Cu       1.89336500       5.16367475      11.08762892
Cu       0.01659166       6.87330631       0.00101798
Cu      -0.00012535       8.63228095       1.86491655
Cu       1.89689995       6.88170164       1.85771452
Cu       1.89104387       8.62547015       0.00260236
Cu       0.00082640       6.89741047       3.69608589
Cu      -0.01326383       8.61234478       5.53498306
Cu       1.88802786       6.90877899       5.55145221
Cu       1.89294253       8.61870856       3.68170244
Cu      -0.00632337       6.89607358       7.38545389
Cu      -0.01713684       8.60343953       9.24350979
Cu       1.89000873       6.90504450       9.23980161
Cu       1.87841711       8.62682913       7.39881319
Cu       0.00069836       6.89801692      11.08814835
Cu       0.00733011       8.62599588      12.94253576
Cu       1.89120929       6.89671045      12.94161573
Cu       1.87934493       8.59521719      11.10425448
Cu      -0.00377963      10.35205407       0.01236617
Cu       0.00118650      12.06839642       1.86723688
Cu       1.88752398      10.34940811       1.83857121
Cu       1.87068269      12.07136818       0.00019943
Cu      -0.00987829      10.34287994       3.71631305
Cu      -0.01090677      12.08157323       5.55512814
Cu       1.88959885      10.35283011       5.56014256
Cu       1.90860409      12.07219643       3.69331005
Cu      -0.00355788      10.35082057       7.39982010
Cu      -0.01426336      12.04998916       9.25524535
Cu       1.90224140      10.34891277       9.24377038
Cu       1.88373937      12.06293556       7.40227901
Cu       0.00562182      10.35592791      11.08265303
Cu      -0.00824064      12.07827672      12.93957439
Cu       1.90707251      10.34427464      12.94335707
Cu       1.87922073      12.06551457      11.06697358
Cu       3.76284216      -0.01804047       0.00011600
Cu       3.76946832       1.71148728       1.84417051
Cu       5.65072604       0.00347210       1.85547421
Cu       5.66351129       1.71692704      -0.00277667
Cu       3.76977339      -0.01066702       3.69699444
Cu       3.76581123       1.70769220       5.53972924
Cu       5.63550093       0.00494400       5.52707887
Cu       5.64366448       1.72182139       3.68912769
Cu       3.80930329       0.00019135       7.38390629
Cu       3.75614495       1.73009388       9.25032793
Cu       5.66519746      -0.00492960       9.25154008
Cu       5.66068133       1.72029700       7.39644513
Cu       3.75354338      -0.00357840      11.09325045
Cu       3.78183543       1.70944113      12.91714238
Cu       5.64975860      -0.00192906      12.93449256
Cu       5.66762233       1.70923103      11.10379482
Cu       3.78100609       3.44091030      -0.00366521
Cu       3.75235303       5.17742720       1.85199210
Cu       5.65258934       3.44783627       1.84468119
Cu       5.66062404       5.17780282      -0.00136102
Cu       3.76831965       3.43903644       3.70004342
Cu       3.77563415       5.16599318       5.54599662
Cu       5.65993573       3.44435690       5.54475614
Cu       5.64089483       5.18193756       3.70082059
Cu       3.76558683       3.45961557       7.38629028
Cu       3.79396438       5.16507664       9.26141064
Cu       5.65477675       3.44628276       9.24443964
Cu       5.66594121       5.16451418       7.38082579
Cu       3.78395386       3.43086015      11.10120441
Cu       3.76051710       5.16451388      12.93330027
Cu       5.66011321       3.45380703      12.93632604
Cu       5.65879424       5.13463645      11.07624495
Cu       3.78539916       6.89006543       0.00062557
Cu       3.78983829       8.62675556       1.85958371
Cu       5.66636312       6.92190471       1.85403254
Cu       5.65580316       8.61145337       0.00844136
Cu       3.76114785       6.88818897       3.69619673
Cu       3.77572209       8.61850176       5.54428263
Cu       5.65778465       6.90331776       5.55694370
Cu       5.67132983       8.61875692       3.69542138
Cu       3.78447690       6.91420475       7.38147261
Cu       3.77402705       8.62716316       9.23085413
Cu       5.64515203       6.88588642       9.23902643
Cu       5.67164987       8.61801149       7.38074117
Cu       3.77421946       6.88374647      11.08668974
Cu       3.79125514       8.62592655      12.94313169
Cu       5.68133221       6.91575170      12.94529335
Cu       5.67087851       8.61402494      11.10691951
Cu       3.77147060      10.33446056      -0.01076443
Cu       3.75462469      12.06139673       1.84429546
Cu       5.63860846      10.34557107       1.85944087
Cu       5.66667619      12.06180936       0.00124574
Cu       3.75580441      10.33852383       3.70660983
Cu       3.76416860      12.05609759       5.52784162
Cu       5.64679597      10.32981907       5.55804263
Cu       5.65814988      12.05013332       3.69530829
Cu       3.78736631      10.31736229       7.38125961
Cu       3.76497189      12.08488768       9.26481543
Cu       5.63985874      10.35591028       9.26140725
Cu       5.65560214      12.07885453       7.39325093
Cu       3.75943354      10.34393348      11.08943986
Cu       3.76531996      12.06004733      12.94475878
Cu       5.68055106      10.34170476      12.94010843
Cu       5.65295735      12.08631023      11.09144916
Cu       7.54275375       0.00580814      -0.00618781
Cu       7.54281564       1.72016882       1.85524455
Cu       9.43200112       0.00103985       1.85221099
Cu       9.42759772       1.73122497      -0.02006950
Cu       7.53755012      -0.00738819       3.69635905
Cu       7.54563578       1.71977920       5.55131509
Cu       9.42351699      -0.00736687       5.54244715
Cu       9.43140848       1.72368173       3.68444190
Cu       7.55184044      -0.00316799       7.40754941
Cu       7.53905075       1.71811448       9.24838381
Cu       9.43966267       0.01313941       9.23842616
Cu       9.43099703       1.71513603       7.38249355
Cu       7.55579306      -0.00544730      11.10476466
Cu       7.53522233       1.72040827      12.94983812
Cu       9.43043614      -0.01192543      12.95428879
Cu       9.39872788       1.70771815      11.10010774
Cu       7.54167629       3.45537447       0.01090085
Cu       7.54033098       5.17641961       1.85413373
Cu       9.41666055       3.43291682       1.83517280
Cu       9.42070911       5.18142937       0.01900222
Cu       7.54185177       3.44115774       3.69946569
Cu       7.54246239       5.18507283       5.55225629
Cu       9.42210373       3.43799949       5.53954812
Cu       9.43472169       5.18637649       3.71467745
Cu       7.55848927       3.44066560       7.39027690
Cu       7.52997179       5.18998143       9.24966732
Cu       9.43209163       3.45213576       9.23445717
Cu       9.43591587       5.16575421       7.38568404
Cu       7.52362359       3.44383701      11.06958343
Cu       7.54974044       5.18691053      12.94902760
Cu       9.42829729       3.43330623      12.93925174
Cu       9.44784731       5.18841356      11.07602495
Cu       7.55965515       6.89459543       0.00675969
Cu       7.52895544       8.61833251       1.85158276
Cu       9.43613342       6.89622455       1.86225485
Cu       9.42124733       8.63396721       0.00355778
Cu       7.53892373       6.89298866       3.69413217
Cu       7.54733936       8.61019585       5.54107084
Cu       9.43439716       6.91691885       5.54969129
Cu       9.42450910       8.60327833       3.70290635
Cu       7.53056571       6.91265754       7.36680413
Cu       7.55291959       8.60809615       9.24108952
Cu       9.42871460       6.89105669       9.23980098
Cu       9.42463735       8.62107067       7.37520327
Cu       7.55449235       6.90309494      11.09264965
Cu       7.53343960       8.62189225      12.95014445
Cu       9.42674980       6.91468874      12.92807932
Cu       9.41312225       8.62128503      11.09369172
Cu       7.54538964      10.32398928       0.00519030
Cu       7.55411913      12.07731675       1.84558739
Cu       9.44238987      10.33640153       1.83027265
Cu       9.43626936      12.07856176       0.00056763
Cu       7.53947373      10.35977689       3.68975617
Cu       7.55366052      12.06480121       5.55817215
Cu       9.42922031      10.34533063       5.56841232
Cu       9.42170580      12.06849709       3.70387178
Cu       7.54838682      10.34940563       7.38528735
Cu       7.54022864      12.06478918       9.26634383
Cu       9.43201421      10.33031231       9.24288121
Cu       9.43529204      12.06237380       7.39416397
Cu       7.55717040      10.33940005      11.09100495
Cu       7.54577338      12.08623825      12.94131453
Cu       9.42682237      10.34147382      12.95544307
Cu       9.42249096      12.07302171      11.09228434
Cu      11.33372173      -0.00664227       0.00220072
Cu      11.32326996       1.72121471       1.85776939
Cu      13.19557218       0.00081370       1.87363050
Cu      13.21900607       1.73270825       0.00227207
Cu      11.31802842       0.00194666       3.69580369
Cu      11.31777274       1.72836056       5.54262647
Cu      13.19618638       0.00437823       5.53982432
Cu      13.21095423       1.71504050       3.70834542
Cu      11.32876294       0.01227203       7.40104871
Cu      11.31461602       1.71074598       9.23999640
Cu      13.19445720       0.00062039       9.23965384
Cu      13.22050389       1.71726641       7.39754058
Cu      11.31766596       0.00510796      11.09235342
Cu      11.31758147       1.72802121      12.95461958
Cu      13.20570455       0.00679686      12.94843428
Cu      13.18957576       1.72813832      11.10324368
Cu      11.31284656       3.44302598      -0.01616329
Cu      11.29682870       5.17102505       1.84877563
Cu      13.19525841       3.46103562       1.84799149
Cu      13.20679045       5.18614933       0.00875864
Cu      11.31716996       3.44397142       3.70591300
Cu      11.30742539       5.16700436       5.55006937
Cu      13.18524636       3.43829637       5.55860560
Cu      13.19203142       5.17170902       3.69075308
Cu      11.30903029       3.44480171       7.39999120
Cu      11.29695163       5.16554694       9.24495415
Cu      13.20160637       3.44764897       9.25610367
Cu      13.19394907       5.17002839       7.39995421
Cu      11.30591784       3.44917021      11.09840827
Cu      11.30401705       5.17700931      12.92526623
Cu      13.20499200       3.44698559      12.94268473
Cu      13.21059654       5.16036559      11.08589626
Cu      11.30337199       6.89262856       0.00958006
Cu      11.33064695       8.60639208       1.84401858
Cu      13.20004476       6.89982990       1.82437640
Cu      13.18769755       8.62688259       0.01387995
Cu      11.32081141       6.88382457       3.69897675
Cu      11.31869132       8.60751751       5.54901331
Cu      13.19154423       6.88737347       5.56921519
Cu      13.19091809       8.61824534       3.69397357
Cu      11.31239344       6.88940110       7.39887010
Cu      11.32389503       8.60468520       9.24709424
Cu      13.20942895       6.89576160       9.25470427
Cu      13.18939665       8.61134270       7.40450901
Cu      11.31764203       6.89031584      11.09093979
Cu      11.31806081       8.63148160      12.95630790
Cu      13.17966017       6.88506507      12.92812771
Cu      13.19164131       8.61852321      11.06488100
Cu      11.31768565      10.34832144       0.01474019
Cu      11.29708411      12.06906792       1.85478192
Cu      13.21598702      10.34319122       1.82888468
Cu      13.17871653      12.06841960       0.00046655
Cu      11.31162882      10.33879080       3.68434684
Cu      11.31055516      12.05079630       5.52847781
Cu      13.21105363      10.34665809       5.53723120
Cu      13.21149857      12.07853184       3.69899428
Cu      11.32645454      10.32901920       7.40224863
Cu      11.31438445      12.06149989       9.23632794
Cu      13.20997976      10.36529494       9.23153097
Cu      13.19306882      12.07157228       7.37779943
Cu      11.30717325      10.33845938      11.08772617
Cu      11.33535150      12.07271123      12.95596181
Cu      13.20154657      10.33227738      12.92849425
Cu      13.21546607      12.06795512      11.07670827
