108
Lattice="8.31904003135027 0.0 0.0 0.0 8.297360133804567 0.0 0.0 0.0 10.80680455265919" Properties=species:S:1:pos:R:3 id=sample_000338 pbc="F F F"
Fe      -0.01507011      -0.00651199      -0.00405883
Fe       0.01362450       1.38799074       1.82038983
Fe       1.34986386       0.01179469       1.77362190
Fe       1.37335158       1.37594665      -0.02484553
Fe      -0.02468975       0.02668130       3.59367473
Fe      -0.00877990       1.40866176       5.38728427
Fe       1.37134905      -0.00524960       5.37926989
Fe       1.37951566       1.36673550       3.59592727
Fe      -0.00379546       0.00690225       7.23931511
Fe       0.01423274       1.38240410       8.98927167
Fe       1.40645504      -0.00926326       9.00797130
Fe       1.42520613       1.40054768       7.21053895
Fe      -0.02308320       2.77080995       0.00021267
Fe      -0.02377799       4.15498146       1.80079415
Fe       1.40935935       2.75892512       1.79780780
Fe       1.38597844       4.18878651      -0.01316527
Fe      -0.00598608       2.76175952       3.61342013
Fe      -0.01866244       4.14454738       5.40725935
Fe       1.41119737       2.74729756       5.38940245
Fe       1.36897012       4.15714000       3.58662376
Fe       0.00305137       2.76001483       7.20161918
Fe      -0.00883135       4.17424433       9.01802607
Fe       1.38464676       2.76474014       9.01418810
Fe       1.36006244       4.15499151       7.21090886
Fe      -0.01759589       5.54402133       0.02733112
Fe      -0.00240563       6.89160949       1.80876585
Fe       1.38227739       5.51247837       1.80731637
Fe       1.39437913       6.92087658      -0.02458443
Fe      -0.00900289       5.52459289       3.61871580
Fe      -0.01997959       6.91855848       5.42076982
Fe       1.39164735       5.53918896       5.40898527
Fe       1.38284896       6.91297398       3.60463993
Fe       0.00110504       5.54316057       7.21099557
Fe       0.00122535       6.92942779       9.01143917
Fe       1.38063625       5.53546708       8.98954254
Fe       1.41072065       6.91057648       7.20262286
Fe       2.79520196      -0.01416314      -0.01138333
Fe       2.76668558       1.35950547       1.79368079
Fe       4.15037620      -0.00724941       1.80555356
Fe       4.14194005       1.37120616      -0.00038735
Fe       2.76103328       0.01889674       3.60304850
Fe       2.77961906       1.39329367       5.42156458
Fe       4.16110718       0.01178228       5.41209392
Fe       4.15974947       1.36317819       3.59698802
Fe       2.77878947      -0.00772478       7.19901018
Fe       2.77038502       1.37121905       9.01340586
Fe       4.15234293       0.01630173       9.04109491
Fe       4.15045629       1.38491493       7.18554897
Fe       2.76544000       2.77547253      -0.01401845
Fe       2.79976272       4.16836019       1.80508496
Fe       4.15724609       2.77060128       1.80612806
Fe       4.15600369       4.14221276      -0.01375986
Fe       2.77141353       2.78589872       3.58113013
Fe       2.77476476       4.16710405       5.40872117
Fe       4.15455289       2.77127205       5.37844795
Fe       4.13674711       4.14746442       3.60048647
Fe       2.79191343       2.78439827       7.21944925
Fe       2.74533168       4.16807302       9.02959383
Fe       4.16171579       2.76751269       8.99578463
Fe       4.18732023       4.13905133       7.22698208
Fe       2.76916199       5.54978630      -0.00572834
Fe       2.78315807       6.86938282       1.80227836
Fe       4.15958785       5.52534545       1.81760067
Fe       4.15453777       6.89761465       0.00037846
Fe       2.76007022       5.52442484       3.59805957
Fe       2.76845273       6.92155299       5.41488563
Fe       4.15205820       5.53997610       5.41223267
Fe       4.16131396       6.92069770       3.60490347
Fe       2.79216933       5.53333228       7.20860928
Fe       2.74459064       6.89791215       8.99130940
Fe       4.17476160       5.53860322       9.02940428
Fe       4.14323884       6.88394675       7.16275866
Fe       5.53514378       0.00115563      -0.02377928
Fe       5.55613340       1.38423070       1.81441693
Fe       6.93861118      -0.02550340       1.80955822
Fe       6.92034890       1.38284500      -0.00485530
Fe       5.54878139      -0.00929498       3.60787016
Fe       5.52400419       1.41710789       5.39995455
Fe       6.92922992       0.00218181       5.39887523
Fe       6.92881163       1.38405497       3.59295480
Fe       5.55013930      -0.00973906       7.21604443
Fe       5.55319141       1.38650004       9.02184637
Fe       6.90212672      -0.00650766       8.98436382
Fe       6.93901692       1.37196336       7.21503958
Fe       5.55287191       2.76168180      -0.01019998
Fe       5.56127406       4.13527504       1.79589035
Fe       6.94025665       2.77262927       1.82518624
Fe       6.96014345       4.14120427      -0.00348808
Fe       5.55318062       2.74338274       3.59307938
Fe       5.53595161       4.14717197       5.39399685
Fe       6.95785562       2.74743128       5.39334199
Fe       6.91063364       4.17495723       3.60860597
Fe       5.52147615       2.75454865       7.18444042
Fe       5.55433526       4.16050000       9.02584855
Fe       6.93511592       2.74646801       9.01485374
Fe       6.91636463       4.16252811       7.19863582
Fe       5.54642614       5.53388841       0.00273044
Fe       5.56659486       6.94762821       1.82281394
Fe       6.91913662       5.52414645       1.81608592
Fe       6.89985922       6.92634447       0.01222470
Fe       5.54475480       5.49234961       3.60211962
Fe       5.54648561       6.91165654       5.38950094
Fe       6.94888645       5.53816611       5.39307095
Fe       6.95648175       6.93146323       3.62474250
Fe       5.52368186       5.50403957       7.17829510
Fe       5.55455364       6.91600618       8.99628832
Fe       6.93852394       5.53440040       9.00248529
Fe       6.92929722       6.89740196       7.21673399
