500
Lattice="17.436714085952072 0.0 0.0 0.0 22.663585778407267 0.0 0.0 0.0 22.05177882831759" Properties=species:S:1:pos:R:3 id=sample_000581 pbc="F F F"
Cu      -0.00319960      -0.01108835      -0.00617893
Cu       0.00443215       2.27335841       2.21147779
Cu       1.72352638       0.00754590       2.20442715
Cu       1.74559590       2.27025232       0.01111691
Cu      -0.00064592       0.00041756       4.39891418
Cu      -0.00793497       2.28434195       6.63045759
Cu       1.75565006       0.00124449       6.61411861
Cu       1.72544953       2.28919348       4.41486329
Cu      -0.00900276       0.00812212       8.83223821
Cu      -0.00032478       2.26686444      11.03960175
Cu       1.73691399       0.00886863      11.01661899
Cu       1.74696470       2.28478610       8.82901068
Cu       0.01638759       0.00370112      13.22391240
Cu       0.00043483       2.26583772      15.45094845
Cu       1.74629177      -0.00241638      15.43885583
Cu       1.74221150       2.25822275      13.22219257
Cu       0.02128728       0.01876948      17.64235788
Cu       0.01042667       2.26239084      19.85248390
Cu       1.73227945      -0.00451272      19.85366381
Cu       1.76199637       2.25433844      17.63894192
Cu       0.00795379       4.52342080       0.01414119
Cu      -0.00488278       6.78976530       2.20590587
Cu       1.73788318       4.53772692       2.19986291
Cu       1.74462631       6.80057599      -0.00333186
Cu       0.01598250       4.52900931       4.40482578
Cu      -0.00381649       6.81301794       6.59785900
Cu       1.74090171       4.50648582       6.60222618
Cu       1.71873477       6.80711369       4.42837449
Cu       0.00498772       4.53494439       8.82933987
Cu       0.00171117       6.79863367      11.04639090
Cu       1.75833928       4.54778262      11.02580877
Cu       1.75384670       6.80168698       8.81761688
Cu      -0.00093068       4.52209970      13.20921991
Cu      -0.00638059       6.80236287      15.43417518
Cu       1.73751104       4.53486701      15.43626500
Cu       1.73183318       6.80435550      13.23527375
Cu       0.00312845       4.53287844      17.64114876
Cu      -0.00527906       6.80734723      19.84274506
Cu       1.74645372       4.52262031      19.85270010
Cu       1.75322475       6.77956921      17.64722579
Cu      -0.00141093       9.08013636       0.01170818
Cu      -0.00863927      11.32344676       2.20904159
Cu       1.73227546       9.06594713       2.21883573
Cu       1.75442564      11.33822165      -0.00640880
Cu       0.01101080       9.06656853       4.41231708
Cu      -0.00678452      11.32401207       6.62647733
Cu       1.73414813       9.05485572       6.61778163
Cu       1.75284677      11.32242034       4.40269593
Cu      -0.00280698       9.05479674       8.81875503
Cu      -0.02949893      11.34869401      11.03067202
Cu       1.73984346       9.07367506      11.03689352
Cu       1.72740903      11.34467471       8.81104137
Cu       0.00737500       9.06154586      13.22902799
Cu      -0.00325129      11.34024329      15.43463913
Cu       1.74411909       9.05610884      15.44137334
Cu       1.75994274      11.32278858      13.24551850
Cu      -0.00053871       9.06116490      17.64117710
Cu      -0.01858793      11.32827211      19.84489779
Cu       1.76651828       9.07740928      19.84514534
Cu       1.73611043      11.32990135      17.64031242
Cu       0.00352125      13.58835508      -0.02669832
Cu       0.01224421      15.85750413       2.18669514
Cu       1.75008615      13.59965566       2.19998954
Cu       1.73272144      15.86404019       0.00170328
Cu       0.01903712      13.60136973       4.40847175
Cu       0.01459680      15.85968777       6.62128286
Cu       1.73978476      13.61343624       6.61940139
Cu       1.74242950      15.86781019       4.42322523
Cu      -0.00008212      13.59249240       8.83726092
Cu      -0.00957130      15.85297667      11.03337488
Cu       1.73032872      13.59292278      11.02407010
Cu       1.74164833      15.86653230       8.81638092
Cu      -0.00573255      13.60580556      13.23657928
Cu       0.01921455      15.86863679      15.43812541
Cu       1.75113775      13.62294636      15.43769621
Cu       1.73758794      15.90002133      13.22181732
Cu      -0.01177296      13.59107964      17.63922886
Cu      -0.00936250      15.87752546      19.84937164
Cu       1.75303079      13.61041144      19.83047511
Cu       1.73953351      15.86534968      17.63620773
Cu      -0.00023044      18.12492331       0.00476555
Cu      -0.00674363      20.40327387       2.21471234
Cu       1.72383767      18.11895531       2.21259750
Cu       1.74658534      20.38758357       0.00966502
Cu       0.00370347      18.13598481       4.43133019
Cu       0.01001305      20.39333485       6.60926507
Cu       1.74230168      18.12957480       6.61873746
Cu       1.73116805      20.39894958       4.40518441
Cu      -0.00214055      18.14657511       8.82493121
Cu       0.00634504      20.40608440      11.02875061
Cu       1.74332895      18.12626146      11.03267392
Cu       1.75786926      20.40136875       8.81253829
Cu       0.00089203      18.11877040      13.22515187
Cu      -0.00319577      20.38717027      15.43299065
Cu       1.73779361      18.13462830      15.42893513
Cu       1.75563779      20.40651902      13.24929146
Cu      -0.00072860      18.13066309      17.64304436
Cu       0.00052405      20.40609164      19.84336500
Cu       1.74591103      18.13837144      19.85377914
Cu       1.75312967      20.39722280      17.66402221
Cu       3.49350865      -0.00333903      -0.02541506
Cu       3.49739795       2.26490679       2.19940264
Cu       5.23909051      -0.00008801       2.19739685
Cu       5.23359222       2.25284077      -0.00287570
Cu       3.48746212      -0.00465771       4.41003360
Cu       3.49079341       2.26601637       6.61194541
Cu       5.23536630      -0.00442390       6.59245913
Cu       5.24087295       2.26508515       4.40557488
Cu       3.49786804       0.02234539       8.81754530
Cu       3.50651114       2.28322015      11.04447362
Cu       5.21955408      -0.01501762      11.01092860
Cu       5.24136977       2.25585834       8.81472062
Cu       3.48414952       0.00721533      13.23179144
Cu       3.49176331       2.26111941      15.44712901
Cu       5.23873914      -0.00588079      15.43317881
Cu       5.23491277       2.25444092      13.22743499
Cu       3.48049795       0.00175612      17.63501104
Cu       3.49559677       2.27721732      19.84884108
Cu       5.22407828      -0.00386145      19.82927003
Cu       5.23504480       2.26486551      17.66041735
Cu       3.48328276       4.51992769      -0.00488399
Cu       3.48203632       6.79585655       2.21779636
Cu       5.22368939       4.52175174       2.21120229
Cu       5.23016111       6.80826370      -0.00387279
Cu       3.49790054       4.51706806       4.41419768
Cu       3.47715849       6.79607713       6.61529066
Cu       5.22378020       4.53127589       6.61953899
Cu       5.24321600       6.80540357       4.43698417
Cu       3.48168642       4.53900214       8.82785614
Cu       3.48474471       6.80544228      11.01237736
Cu       5.24350321       4.55228152      11.02581113
Cu       5.23608864       6.79344566       8.81183573
Cu       3.48663537       4.53385323      13.24078838
Cu       3.47738384       6.80671305      15.43526920
Cu       5.23706701       4.52581809      15.44061767
Cu       5.21490981       6.78678866      13.24007253
Cu       3.49942375       4.53569841      17.62759886
Cu       3.49961434       6.80263592      19.85456551
Cu       5.23028052       4.51825996      19.85277054
Cu       5.22480397       6.78351956      17.66307694
Cu       3.49666685       9.05631454      -0.01710700
Cu       3.48941877      11.33246520       2.19502421
Cu       5.24149472       9.07408589       2.21541439
Cu       5.22911109      11.33969344      -0.00208334
Cu       3.48719169       9.06075373       4.40920175
Cu       3.47017867      11.33180028       6.62908663
Cu       5.22466022       9.07205829       6.62787299
Cu       5.22754481      11.32864807       4.41071023
Cu       3.48599810       9.05950679       8.83198322
Cu       3.49698664      11.30983946      11.01955824
Cu       5.23160825       9.05820712      11.00979237
Cu       5.22470149      11.33164488       8.82983719
Cu       3.47835874       9.06897292      13.22538873
Cu       3.48368104      11.32811738      15.41856644
Cu       5.22832743       9.05727932      15.43899224
Cu       5.24243438      11.33581031      13.25413639
Cu       3.47494277       9.06925035      17.66275783
Cu       3.48285160      11.33944858      19.84863214
Cu       5.21999963       9.06898867      19.83494675
Cu       5.23712039      11.33500483      17.64270409
Cu       3.48448898      13.59509062      -0.01785474
Cu       3.49120786      15.85197764       2.21797788
Cu       5.23738005      13.60583466       2.21397202
Cu       5.23554216      15.86505846      -0.00170487
Cu       3.48405937      13.60137020       4.40816180
Cu       3.48893176      15.88008902       6.60528740
Cu       5.23611212      13.58332873       6.60736612
Cu       5.23388412      15.86155623       4.39882848
Cu       3.46908819      13.59499572       8.80982882
Cu       3.47081146      15.86902814      11.03155547
Cu       5.24453456      13.58576958      11.02814393
Cu       5.23759744      15.85782988       8.80420894
Cu       3.49660856      13.59447903      13.21617094
Cu       3.47539401      15.85923314      15.44606666
Cu       5.24843338      13.59895380      15.44808567
Cu       5.24126411      15.84606817      13.22432066
Cu       3.49320245      13.59416578      17.63025333
Cu       3.50780249      15.84832616      19.84832749
Cu       5.23666760      13.61347947      19.86038375
Cu       5.21391528      15.86142662      17.63240841
Cu       3.48839574      18.13007167       0.02128444
Cu       3.49254274      20.38795790       2.20389811
Cu       5.22655303      18.11672899       2.21706525
Cu       5.24048349      20.39934305       0.00625674
Cu       3.48814031      18.13476911       4.42196135
Cu       3.49935542      20.39990848       6.60775725
Cu       5.23870869      18.11792200       6.61021922
Cu       5.22057176      20.38379379       4.40225566
Cu       3.49456174      18.12837363       8.82714150
Cu       3.47040149      20.41050344      11.01421074
Cu       5.23247520      18.13261432      11.04462737
Cu       5.23885312      20.40425953       8.82327924
Cu       3.48541778      18.12648107      13.22968393
Cu       3.48030042      20.40944844      15.44548172
Cu       5.23421382      18.12694832      15.42777669
Cu       5.23854519      20.38771323      13.23103896
Cu       3.47827672      18.12483250      17.64319192
Cu       3.51367936      20.40062278      19.85670231
Cu       5.24807865      18.13185204      19.83220434
Cu       5.23028187      20.37461957      17.65324040
Cu       6.98069710       0.01345510       0.01048677
Cu       6.97503777       2.26620827       2.21694774
Cu       8.72154979      -0.01056018       2.20051954
Cu       8.72664653       2.25781259      -0.00753407
Cu       6.96984282       0.00601594       4.42965477
Cu       6.98199009       2.26760391       6.60366175
Cu       8.71392561       0.00515307       6.61111266
Cu       8.70908413       2.25980916       4.41739362
Cu       6.97854384       0.00318984       8.81257350
Cu       6.97057232       2.27729357      11.02208218
Cu       8.71424530       0.00277289      11.02642122
Cu       8.71477810       2.26582861       8.80336561
Cu       6.97121754       0.00009351      13.24060784
Cu       6.96121423       2.26055342      15.44081727
Cu       8.71802763       0.00264585      15.45144154
Cu       8.72466070       2.28964332      13.23596144
Cu       6.97208612      -0.00333165      17.64177964
Cu       6.96623960       2.26976449      19.85472073
Cu       8.72771782      -0.02119919      19.85017593
Cu       8.73081738       2.24726898      17.63549964
Cu       6.96217784       4.53422900       0.00768752
Cu       6.97693518       6.79685058       2.21492680
Cu       8.71977713       4.55201135       2.19406893
Cu       8.73398299       6.79655676       0.00209023
Cu       6.95028841       4.52880436       4.41366466
Cu       6.95451256       6.80911892       6.63143169
Cu       8.72014618       4.52874753       6.59362695
Cu       8.72691943       6.79454615       4.40033105
Cu       6.97504295       4.54140815       8.79638953
Cu       6.96601111       6.79638368      11.03003887
Cu       8.72077314       4.52823102      11.01990464
Cu       8.71830310       6.80211003       8.81807076
Cu       6.98260213       4.53265622      13.20675199
Cu       6.97108454       6.79008220      15.44561712
Cu       8.70300762       4.52012729      15.43065642
Cu       8.71280897       6.82341355      13.24195343
Cu       6.98260902       4.52174821      17.64635305
Cu       6.97265492       6.79658419      19.86283534
Cu       8.71859755       4.54045012      19.84382493
Cu       8.69601533       6.79300803      17.62934070
Cu       6.97340015       9.07483107       0.01248823
Cu       6.98734536      11.34481741       2.20105074
Cu       8.73020833       9.06371270       2.21794976
Cu       8.70432221      11.33663505       0.00710407
Cu       6.95703118       9.05786187       4.42725434
Cu       6.98141683      11.33269672       6.60661681
Cu       8.72871746       9.05874299       6.61763372
Cu       8.71911830      11.34057865       4.40847227
Cu       6.95559644       9.06589509       8.80635927
Cu       6.97066094      11.33678540      11.01105055
Cu       8.72407546       9.05277381      10.99646822
Cu       8.72773972      11.32895891       8.79748757
Cu       6.96891696       9.06578318      13.21315182
Cu       6.96966254      11.31597984      15.42981366
Cu       8.71227182       9.04062629      15.43513992
Cu       8.70527099      11.31063843      13.23266057
Cu       6.97950555       9.05994993      17.65129215
Cu       6.96498305      11.33425783      19.82397594
Cu       8.70742099       9.05686129      19.84699635
Cu       8.71816551      11.31883406      17.65036849
Cu       6.98286667      13.59135187      -0.01835928
Cu       6.98102597      15.87618174       2.20859124
Cu       8.71390557      13.60402530       2.21361844
Cu       8.69260593      15.85282958       0.01375807
Cu       6.96593617      13.60120404       4.40143536
Cu       6.97770907      15.85414327       6.62425648
Cu       8.72547868      13.58169401       6.62353964
Cu       8.71852679      15.85665601       4.41155035
Cu       6.98788494      13.58058715       8.81538280
Cu       6.96792175      15.86702066      11.03367391
Cu       8.71018367      13.57895310      11.02054822
Cu       8.71089954      15.86282363       8.81799467
Cu       6.97282515      13.58258364      13.22253907
Cu       6.98005518      15.86639454      15.44574325
Cu       8.69901789      13.59222217      15.45585570
Cu       8.69796106      15.86328343      13.23083391
Cu       6.98824291      13.59374978      17.62601186
Cu       6.95759640      15.85427570      19.85518513
Cu       8.71043597      13.58095791      19.83780685
Cu       8.70929410      15.85214592      17.65335175
Cu       6.97804653      18.14194775      -0.00902939
Cu       6.97647395      20.39335908       2.19025721
Cu       8.71683629      18.12559175       2.21538500
Cu       8.70757194      20.38180255       0.00228870
Cu       6.98502945      18.11803118       4.38778780
Cu       6.96210002      20.39728696       6.59139367
Cu       8.71328866      18.12957001       6.61120238
Cu       8.72962880      20.39874255       4.39048748
Cu       6.98029411      18.14322331       8.80313865
Cu       6.96715554      20.39740304      11.02697756
Cu       8.71409670      18.12460368      11.02830924
Cu       8.72580978      20.38128828       8.81540800
Cu       6.97206227      18.14038548      13.21588293
Cu       6.98057386      20.37781313      15.43851431
Cu       8.71445577      18.12845220      15.44749858
Cu       8.70807893      20.40092066      13.24670958
Cu       6.97510041      18.13196160      17.64045619
Cu       6.98185971      20.39884779      19.85078669
Cu       8.71275287      18.14731832      19.84476810
Cu       8.72553824      20.39689898      17.64166187
Cu      10.46164201       0.01591773       0.01295008
Cu      10.46063754       2.26082519       2.21351491
Cu      12.19869350       0.02732182       2.20355363
Cu      12.22015131       2.28461112       0.00292340
Cu      10.46656534       0.00323955       4.40490916
Cu      10.46760161       2.25900462       6.60174653
Cu      12.20599389      -0.00263686       6.60037739
Cu      12.21583533       2.28365270       4.42541341
Cu      10.47619246      -0.00954140       8.81852673
Cu      10.47037020       2.26105100      11.01567687
Cu      12.19811691      -0.00341784      11.01470893
Cu      12.20217552       2.27941841       8.83567521
Cu      10.47616994       0.00417671      13.21109858
Cu      10.47394478       2.25985609      15.43258507
Cu      12.21294893      -0.00333009      15.43836684
Cu      12.20166142       2.26757119      13.23267822
Cu      10.45997392      -0.00049007      17.64637118
Cu      10.43061410       2.26920738      19.82874234
Cu      12.21041628       0.00309775      19.83327888
Cu      12.19425052       2.27018059      17.66209511
Cu      10.44738221       4.51376057      -0.01314467
Cu      10.46068673       6.82028153       2.20398542
Cu      12.19947637       4.51881641       2.21147062
Cu      12.18924651       6.80896392      -0.00122598
Cu      10.45929269       4.53236210       4.40006044
Cu      10.47801147       6.79237040       6.59876172
Cu      12.19467425       4.52701332       6.61627316
Cu      12.21453276       6.79686236       4.41456791
Cu      10.45675854       4.52803648       8.82848534
Cu      10.46928527       6.79333842      11.03947617
Cu      12.22146418       4.53623418      11.03815255
Cu      12.21887392       6.79987724       8.80371212
Cu      10.46875594       4.53940661      13.25184873
Cu      10.44386452       6.79949306      15.44444904
Cu      12.20903489       4.53246346      15.43192961
Cu      12.20502599       6.81069293      13.21909619
Cu      10.44186090       4.54196857      17.63683182
Cu      10.48257720       6.79493539      19.83247043
Cu      12.20735166       4.53796862      19.85549379
Cu      12.19674825       6.78972338      17.63313518
Cu      10.44626672       9.05224593      -0.00463550
Cu      10.47054992      11.34596183       2.20963583
Cu      12.20207882       9.05624076       2.21528543
Cu      12.20761503      11.34461202       0.00875083
Cu      10.47426158       9.05053288       4.39981533
Cu      10.48486670      11.34525673       6.60952592
Cu      12.21661528       9.06116438       6.61252419
Cu      12.20363765      11.34875635       4.41658432
Cu      10.45755601       9.07925176       8.83330584
Cu      10.44945297      11.34017221      11.04076399
Cu      12.21403206       9.05794915      11.03104807
Cu      12.20420461      11.33883292       8.81050576
Cu      10.46191358       9.06213631      13.22726500
Cu      10.48003040      11.33124410      15.43157204
Cu      12.21330341       9.04864049      15.44025748
Cu      12.20166451      11.32305489      13.22535098
Cu      10.45548174       9.06293971      17.62106806
Cu      10.48020807      11.34385305      19.85324890
Cu      12.21088388       9.06870366      19.83886441
Cu      12.21292703      11.33570013      17.64811741
Cu      10.46289258      13.61456634       0.00897211
Cu      10.43513233      15.84653632       2.18544902
Cu      12.19778324      13.61810952       2.19456608
Cu      12.19624112      15.85808691      -0.00486468
Cu      10.48072399      13.58723473       4.42143096
Cu      10.44857140      15.86420674       6.61966859
Cu      12.19316566      13.60052344       6.60408591
Cu      12.19677392      15.86340076       4.41614202
Cu      10.47290523      13.60690255       8.82006166
Cu      10.47573209      15.87009781      11.01100539
Cu      12.19933162      13.58765949      11.02971590
Cu      12.21847413      15.86612917       8.81255308
Cu      10.44876386      13.59577534      13.23624459
Cu      10.45764820      15.88078620      15.41784896
Cu      12.22310636      13.60334635      15.42805138
Cu      12.20391676      15.85703137      13.22956658
Cu      10.47201494      13.62093713      17.64669170
Cu      10.44651125      15.85076821      19.86042523
Cu      12.21551266      13.58574780      19.84137674
Cu      12.21565995      15.86950075      17.63504521
Cu      10.47691806      18.13866966      -0.01369398
Cu      10.45526374      20.39027400       2.18243399
Cu      12.22186259      18.12883453       2.21503856
Cu      12.21191965      20.39736510       0.00895977
Cu      10.45864440      18.13164833       4.40845825
Cu      10.45810656      20.39484172       6.61420707
Cu      12.20941889      18.11284025       6.61857696
Cu      12.20746758      20.39018465       4.40981085
Cu      10.47825058      18.12680526       8.83736112
Cu      10.45761075      20.39801700      11.02262898
Cu      12.19445979      18.13861659      11.03210069
Cu      12.20599814      20.40289024       8.82404061
Cu      10.44972575      18.12420176      13.22658346
Cu      10.46383171      20.38685360      15.43108299
Cu      12.21342127      18.12608392      15.43400941
Cu      12.20022268      20.37974828      13.23709473
Cu      10.44943390      18.12841752      17.63453826
Cu      10.45452098      20.38510275      19.84703890
Cu      12.23184144      18.13973002      19.85292199
Cu      12.20821013      20.40343863      17.64004882
Cu      13.96662655       0.00482489      -0.00549982
Cu      13.95445283       2.28326055       2.18354076
Cu      15.68079008      -0.00707651       2.20745317
Cu      15.69962304       2.26650653      -0.01065752
Cu      13.95924170       0.01000444       4.40868311
Cu      13.96061816       2.26576672       6.62842254
Cu      15.69102902      -0.00084503       6.62272026
Cu      15.68571221       2.26225798       4.41433819
Cu      13.96011669       0.02275319       8.82221031
Cu      13.95301338       2.27635097      11.02963891
Cu      15.70837254       0.01065109      11.04858082
Cu      15.69273409       2.25607334       8.80559381
Cu      13.96474731      -0.01359694      13.23323987
Cu      13.95008156       2.25655390      15.45459063
Cu      15.69504160       0.00334199      15.44594590
Cu      15.68140486       2.25913804      13.23173792
Cu      13.96389993      -0.01200997      17.65981365
Cu      13.97151362       2.26186382      19.86804347
Cu      15.70210935       0.01575489      19.84827922
Cu      15.68606683       2.26955442      17.62927236
Cu      13.95413754       4.54846573      -0.00706471
Cu      13.94381574       6.80602557       2.21248118
Cu      15.69181459       4.54229069       2.20485824
Cu      15.67824942       6.80113908       0.00105112
Cu      13.93735457       4.54491941       4.39906201
Cu      13.95812055       6.81422561       6.61919904
Cu      15.68434328       4.51150757       6.61026223
Cu      15.70714371       6.79923543       4.41135546
Cu      13.94664058       4.53171649       8.80917198
Cu      13.93302143       6.78547859      11.03177716
Cu      15.70750123       4.53871645      11.02991015
Cu      15.68432556       6.79973426       8.81785555
Cu      13.95653882       4.54233239      13.23369001
Cu      13.94036949       6.80537151      15.43127818
Cu      15.69138183       4.52929743      15.43732207
Cu      15.67623960       6.80504652      13.23449701
Cu      13.93798276       4.52881015      17.63773874
Cu      13.94944773       6.80148078      19.81476898
Cu      15.69333224       4.54360352      19.81790254
Cu      15.68829456       6.80099142      17.64763498
Cu      13.95314939       9.04732737      -0.01042659
Cu      13.92215023      11.32779615       2.21955369
Cu      15.67980131       9.06522450       2.18827828
Cu      15.69789033      11.32399149      -0.00283190
Cu      13.94916332       9.07628667       4.39620412
Cu      13.95598272      11.34101805       6.60922700
Cu      15.69260705       9.07415482       6.62198627
Cu      15.71199059      11.34241222       4.42423083
Cu      13.93861620       9.04537215       8.81059402
Cu      13.94421449      11.35102752      11.01090526
Cu      15.70077655       9.06489316      11.01240874
Cu      15.69462757      11.33479164       8.82379950
Cu      13.95356158       9.05681651      13.22035749
Cu      13.94620553      11.33370102      15.43404766
Cu      15.69120572       9.06352781      15.43302442
Cu      15.70720010      11.34875760      13.22505810
Cu      13.95203677       9.06724890      17.65128084
Cu      13.93115271      11.34548299      19.83076807
Cu      15.69369874       9.07496470      19.86000646
Cu      15.69093743      11.31782359      17.65158922
Cu      13.93688654      13.61068738      -0.00360274
Cu      13.94181358      15.85035091       2.19470821
Cu      15.67490494      13.59741047       2.20311982
Cu      15.68431925      15.87152613       0.00429449
Cu      13.94534609      13.60110251       4.41424766
Cu      13.94006097      15.85155054       6.62016586
Cu      15.67785247      13.58581260       6.61002715
Cu      15.68881922      15.86651866       4.39702461
Cu      13.95126299      13.60706784       8.82511655
Cu      13.95640969      15.86810272      11.04112336
Cu      15.69791685      13.59900219      11.03592041
Cu      15.68525820      15.84694291       8.82518161
Cu      13.94745786      13.61303029      13.22209555
Cu      13.96529477      15.87931695      15.44458179
Cu      15.70131306      13.59240610      15.45164222
Cu      15.68181889      15.85452291      13.21851891
Cu      13.94232879      13.60157786      17.64393578
Cu      13.92797958      15.87303021      19.86019509
Cu      15.70771175      13.60336272      19.83222240
Cu      15.69459735      15.86136030      17.64641176
Cu      13.92852738      18.13027640      -0.00473335
Cu      13.96198576      20.40825447       2.21344156
Cu      15.68593407      18.11712578       2.20380908
Cu      15.68769112      20.40343533      -0.00447089
Cu      13.94383416      18.14202461       4.40155949
Cu      13.96171419      20.39891372       6.60322185
Cu      15.70375210      18.12970969       6.61114627
Cu      15.70227574      20.39207503       4.40908227
Cu      13.94769657      18.12205098       8.81339014
Cu      13.95670917      20.38949771      11.02694242
Cu      15.70716473      18.12785725      11.01744143
Cu      15.67400499      20.40007500       8.82070567
Cu      13.94333215      18.11809896      13.23423961
Cu      13.93336495      20.39533318      15.43428800
Cu      15.68725125      18.12334282      15.46038435
Cu      15.69492530      20.39025510      13.23893133
Cu      13.96184388      18.12397333      17.63315389
Cu      13.95524427      20.40682549      19.86087016
Cu      15.68744465      18.12219921      19.86278118
Cu      15.70555810      20.39445256      17.65706389
