108
Lattice="10.256687871078407 0.0 0.0 0.0 10.60510364762268 0.0 0.0 0.0 8.725694554011966" Properties=species:S:1:pos:R:3 id=sample_001101 pbc="F F F"
Fe      -0.01770878       0.00386416      -0.00650791
Fe      -0.00464988       1.76029951       1.44470424
Fe       1.70830483      -0.00869084       1.44563420
Fe       1.72233366       1.74769188       0.01223260
Fe      -0.00834323       0.01220580       2.91596593
Fe       0.00752262       1.77560341       4.35149513
Fe       1.69830167      -0.00104305       4.36670099
Fe       1.70650752       1.76012064       2.90708138
Fe      -0.00067770       0.00046435       5.82877986
Fe      -0.00688344       1.77106751       7.27225235
Fe       1.73261731       0.00256281       7.26561742
Fe       1.70807160       1.77610990       5.81118431
Fe      -0.01568235       3.54090049       0.01056130
Fe      -0.00345347       5.30113496       1.45983115
Fe       1.71544228       3.52004870       1.46147162
Fe       1.70037090       5.28653830       0.01613541
Fe      -0.00396271       3.55825787       2.91189557
Fe      -0.00625063       5.28509680       4.35601720
Fe       1.72183924       3.55304564       4.35137077
Fe       1.68945264       5.31126226       2.91190648
Fe       0.01704801       3.52141078       5.80787858
Fe      -0.00350485       5.31477600       7.27747853
Fe       1.73059262       3.53626327       7.28272782
Fe       1.70339036       5.30815451       5.80972933
Fe       0.01140913       7.07532216      -0.01071877
Fe       0.00613141       8.83519785       1.45895544
Fe       1.70725231       7.06751888       1.44573608
Fe       1.72254907       8.84125352       0.02303713
Fe      -0.00518536       7.06790804       2.92035096
Fe       0.00872841       8.82550819       4.36037815
Fe       1.72689568       7.06070532       4.36238827
Fe       1.70130919       8.83917666       2.91230023
Fe       0.00717892       7.07650343       5.82096517
Fe      -0.01113088       8.83386372       7.26617605
Fe       1.70995835       7.07822970       7.27471457
Fe       1.70772413       8.82988749       5.81321686
Fe       3.42459330       0.00352774      -0.00065359
Fe       3.41511798       1.75482960       1.45823883
Fe       5.12027521       0.00600150       1.45357247
Fe       5.13401786       1.77270586      -0.00598438
Fe       3.41810368       0.02458184       2.89884350
Fe       3.41288583       1.75681378       4.35530768
Fe       5.10820297      -0.00591296       4.35138783
Fe       5.15007366       1.75781735       2.89736932
Fe       3.42755761      -0.00480003       5.80307081
Fe       3.41874191       1.76135685       7.27787454
Fe       5.13189106       0.01204541       7.27055963
Fe       5.12542575       1.75955183       5.82378894
Fe       3.41721263       3.53512871      -0.00789381
Fe       3.41999105       5.29258864       1.46148536
Fe       5.14410014       3.53006680       1.47232734
Fe       5.13606677       5.29767386       0.00021180
Fe       3.40894851       3.53806205       2.89575652
Fe       3.41839651       5.30159695       4.38362044
Fe       5.12743349       3.53970050       4.36655105
Fe       5.14116102       5.31002832       2.90701742
Fe       3.42197913       3.54629172       5.81342576
Fe       3.41242168       5.31400492       7.28363265
Fe       5.13290809       3.53549629       7.25881388
Fe       5.13271894       5.29229874       5.83412497
Fe       3.43737443       7.07568246      -0.00802042
Fe       3.42932634       8.84354515       1.44670907
Fe       5.12759660       7.05490621       1.46034610
Fe       5.12071731       8.84257105       0.00043024
Fe       3.41488523       7.07805018       2.89543233
Fe       3.42279920       8.84796099       4.36518579
Fe       5.13637727       7.06058864       4.35736601
Fe       5.12545924       8.85178171       2.90140806
Fe       3.41576797       7.05310431       5.82037483
Fe       3.43007046       8.84664807       7.26024914
Fe       5.13077471       7.07289354       7.28637412
Fe       5.13042363       8.84402054       5.82340994
Fe       6.83057220       0.00088966       0.00488913
Fe       6.83116554       1.76406888       1.45863112
Fe       8.56624170       0.01869427       1.47321360
Fe       8.53956641       1.75878876      -0.00568447
Fe       6.84499260       0.01178990       2.90065192
Fe       6.85784583       1.77243759       4.36121852
Fe       8.53143942       0.00847030       4.37430417
Fe       8.55988723       1.78722944       2.92252567
Fe       6.81922087      -0.01912260       5.81253387
Fe       6.83470570       1.76183264       7.25879620
Fe       8.54138156       0.00755532       7.27492542
Fe       8.54712127       1.76722216       5.82745544
Fe       6.83564592       3.52748480       0.00648528
Fe       6.84045040       5.29197347       1.44588216
Fe       8.54578356       3.54383950       1.45267306
Fe       8.51486967       5.29417333      -0.00773644
Fe       6.84105237       3.54813724       2.90859242
Fe       6.84086604       5.31360608       4.37399669
Fe       8.54981618       3.53803707       4.36762938
Fe       8.54165493       5.30676683       2.91034427
Fe       6.84644345       3.52957720       5.82106558
Fe       6.85293605       5.30202192       7.26788891
Fe       8.53759980       3.51405136       7.27552063
Fe       8.56286811       5.30491583       5.81764554
Fe       6.84862958       7.06241782       0.00480057
Fe       6.82527147       8.82434839       1.45468618
Fe       8.54254202       7.07188570       1.46005965
Fe       8.55013922       8.83262410      -0.02480311
Fe       6.82605196       7.07103508       2.91365473
Fe       6.84183525       8.83625657       4.37500225
Fe       8.55758388       7.08759762       4.35774570
Fe       8.54916655       8.82392167       2.90031133
Fe       6.84795757       7.07916931       5.81177997
Fe       6.84041300       8.84176317       7.25974731
Fe       8.54213339       7.05290396       7.25328288
Fe       8.53824127       8.84374797       5.80272933
