256
Lattice="27.31685144784953 0.0 0.0 0.0 24.954603716170407 0.0 0.0 0.0 19.742348093357073" Properties=species:S:1:pos:R:3 id=sample_001089 pbc="F F F"
Si       0.00345380       0.02108230      -0.00214280
Si       0.00119541       3.13305058       2.46496717
Si       3.40314619      -0.01363673       2.44233146
Si       3.39380503       3.11345826      -0.00655739
Si       0.00703119      -0.00603241       4.93657691
Si      -0.00568622       3.12542018       7.39155074
Si       3.41077953      -0.00214745       7.41402530
Si       3.39797535       3.10226099       4.93443691
Si      -0.01249349      -0.00375282       9.86072746
Si       0.00184400       3.13063544      12.34543481
Si       3.42668292       0.00477622      12.33786259
Si       3.40988286       3.11334895       9.87011474
Si       0.00413601      -0.00444353      14.79552390
Si       0.00864350       3.12196427      17.26683093
Si       3.41256997       0.00912745      17.28881223
Si       3.41039546       3.12433936      14.80107043
Si      -0.00730532       6.22249924       0.00547262
Si       0.01147118       9.36466756       2.46035824
Si       3.41742420       6.23835195       2.47000248
Si       3.41899986       9.35265043       0.00549464
Si      -0.00404076       6.24197089       4.92569356
Si       0.00286505       9.36580959       7.39340909
Si       3.41661682       6.25059423       7.40507505
Si       3.42211199       9.35486331       4.94420824
Si       0.00118591       6.23662491       9.87301095
Si       0.01955274       9.36151762      12.34998351
Si       3.41254690       6.20589397      12.32074434
Si       3.40233023       9.35733684       9.87425041
Si      -0.01440563       6.25669519      14.80780976
Si       0.01160021       9.36842674      17.27218109
Si       3.43352153       6.22535556      17.28114425
Si       3.43219233       9.35216406      14.81399783
Si       0.00797962      12.48282878       0.00624988
Si      -0.01721359      15.60417078       2.45826588
Si       3.42780317      12.48130464       2.46212160
Si       3.41688498      15.57478295       0.01051422
Si      -0.01572078      12.46595890       4.93829239
Si       0.00462885      15.60804307       7.39301444
Si       3.41171618      12.47210139       7.38773760
Si       3.41919898      15.58258023       4.92200025
Si      -0.01618986      12.46534071       9.87849428
Si      -0.00314150      15.60107887      12.34726048
Si       3.40665692      12.48077441      12.33447366
Si       3.42106744      15.58552918       9.87680670
Si      -0.00041053      12.48386910      14.79853330
Si      -0.00447601      15.58801867      17.27616623
Si       3.41271619      12.46648391      17.27759661
Si       3.41182140      15.61552366      14.80165039
Si      -0.00178025      18.72252188      -0.00784839
Si       0.00739685      21.82698535       2.47293206
Si       3.40982282      18.71225431       2.46774097
Si       3.41481585      21.82675762      -0.01140459
Si      -0.00112355      18.71105735       4.92493694
Si       0.01481327      21.82045805       7.40656555
Si       3.43146900      18.70449935       7.42050079
Si       3.41611954      21.83950885       4.93862407
Si      -0.00822164      18.73687218       9.87998793
Si      -0.01191998      21.83186611      12.33441323
Si       3.40873017      18.72748334      12.34077869
Si       3.42100135      21.82587706       9.85550154
Si      -0.01213591      18.71879533      14.81494105
Si      -0.00559976      21.85958850      17.29073945
Si       3.40685687      18.71945011      17.28175286
Si       3.41017688      21.82030507      14.80652854
Si       6.83072308      -0.00967036      -0.01423560
Si       6.82295667       3.12369726       2.45525438
Si      10.23849200      -0.00316215       2.46061680
Si      10.25521466       3.11053171      -0.00539756
Si       6.83479563       0.01142359       4.93170940
Si       6.82787679       3.11202720       7.41015074
Si      10.26785219       0.01119753       7.39029839
Si      10.23446934       3.13462291       4.93162614
Si       6.82298916      -0.00769393       9.86032189
Si       6.84279120       3.13625308      12.33676778
Si      10.24619712      -0.01771458      12.33568342
Si      10.26209884       3.11702118       9.87634828
Si       6.82606822       0.00769487      14.81241918
Si       6.82100830       3.12682540      17.27750767
Si      10.24391352       0.00433442      17.28054387
Si      10.24188959       3.11143418      14.81213689
Si       6.83584241       6.23866652      -0.00737765
Si       6.83169273       9.35312469       2.47245394
Si      10.25979920       6.22414579       2.47601900
Si      10.23864965       9.35102409      -0.00545263
Si       6.82576373       6.22301961       4.93061262
Si       6.82802522       9.36340558       7.38638526
Si      10.24583861       6.24416717       7.38797635
Si      10.26220893       9.34473110       4.94718840
Si       6.81618844       6.24193443       9.86120120
Si       6.83337252       9.36868564      12.33976183
Si      10.24128639       6.24314627      12.34102936
Si      10.25310283       9.36365459       9.87050416
Si       6.83104218       6.24784644      14.80455126
Si       6.81836437       9.36589971      17.27304026
Si      10.25791412       6.23311071      17.25662619
Si      10.25253314       9.35131110      14.79606201
Si       6.82043684      12.48234812      -0.01360350
Si       6.82645093      15.61725847       2.45865769
Si      10.24704395      12.46824499       2.45917017
Si      10.24514751      15.58835348       0.00620094
Si       6.84678058      12.49568446       4.94877470
Si       6.83662181      15.61344024       7.40600819
Si      10.22389490      12.47185656       7.39848271
Si      10.24640594      15.60168392       4.92643132
Si       6.84460729      12.47876573       9.86431712
Si       6.81569220      15.60327852      12.35305654
Si      10.24488373      12.49506298      12.33277686
Si      10.24415654      15.58892199       9.89443378
Si       6.83250197      12.48176874      14.81082092
Si       6.83493281      15.59155874      17.28382556
Si      10.25748788      12.49113898      17.26722726
Si      10.25089196      15.59321837      14.80742835
Si       6.81731523      18.72051325       0.02085604
Si       6.82160788      21.83207387       2.45899921
Si      10.23950116      18.71144932       2.46322267
Si      10.24312420      21.83109066      -0.00004893
Si       6.83058683      18.71987854       4.93978474
Si       6.82835529      21.83648394       7.39592301
Si      10.24618811      18.73172942       7.39969207
Si      10.25043719      21.83772470       4.92262269
Si       6.82067874      18.71473527       9.87593249
Si       6.83656832      21.80354003      12.34314396
Si      10.23749504      18.72784104      12.34790997
Si      10.26022590      21.82328166       9.87859930
Si       6.83340218      18.72629646      14.79597461
Si       6.83907949      21.84941675      17.28329904
Si      10.23669731      18.72064913      17.28286327
Si      10.26192889      21.84772430      14.79588326
Si      13.64849281      -0.00434714      -0.00868247
Si      13.65122777       3.13051136       2.47444522
Si      17.06608763       0.00378671       2.47250217
Si      17.07419511       3.12421165       0.01703400
Si      13.66102266      -0.01471316       4.92600972
Si      13.66136648       3.12569957       7.39064801
Si      17.07924713      -0.00596663       7.41535442
Si      17.08480771       3.13100715       4.93837764
Si      13.65116194      -0.01082537       9.88505013
Si      13.65804366       3.11104794      12.34990872
Si      17.08397167       0.00156945      12.33714970
Si      17.07717768       3.10035888       9.87313737
Si      13.66482243      -0.00112561      14.79795693
Si      13.65282851       3.11348436      17.28471724
Si      17.05547000      -0.00251556      17.26936918
Si      17.07446077       3.12461732      14.80152062
Si      13.67109350       6.22604492      -0.01141821
Si      13.64770979       9.35344215       2.45849137
Si      17.07720599       6.22886759       2.46925270
Si      17.07593613       9.36057492       0.00054521
Si      13.66410377       6.23058010       4.93105159
Si      13.65134360       9.35450503       7.40822152
Si      17.07106254       6.24848924       7.40038399
Si      17.07274781       9.34781495       4.92986688
Si      13.65709279       6.24698173       9.86512477
Si      13.63153184       9.36282147      12.33956363
Si      17.06385739       6.24736534      12.34832245
Si      17.07998012       9.36869360       9.86932327
Si      13.65262970       6.24632560      14.80848509
Si      13.66264102       9.36269395      17.26968815
Si      17.07329614       6.24709049      17.27029715
Si      17.06938863       9.37125464      14.81813152
Si      13.65404865      12.46948523       0.00973806
Si      13.66169992      15.60533188       2.48272254
Si      17.06073030      12.47648219       2.47611660
Si      17.08257906      15.60956900       0.00897768
Si      13.64739788      12.48255182       4.94199348
Si      13.65257233      15.59673911       7.41205881
Si      17.05825260      12.47799253       7.38572744
Si      17.07621146      15.59509394       4.94015921
Si      13.63919244      12.48275118       9.87659970
Si      13.65105026      15.58133528      12.33878775
Si      17.06992831      12.48203208      12.33492926
Si      17.06146055      15.60484600       9.87046504
Si      13.64857351      12.48069693      14.80153853
Si      13.64740025      15.57995311      17.28019651
Si      17.07824422      12.47610368      17.28127244
Si      17.06186543      15.58399882      14.78676398
Si      13.66289059      18.69807695       0.00467122
Si      13.65572701      21.82843020       2.47424456
Si      17.05958546      18.71567008       2.47472112
Si      17.06949747      21.84237971       0.02317345
Si      13.64220900      18.71929651       4.91357347
Si      13.66896304      21.85084519       7.40414193
Si      17.05698728      18.71869786       7.41023268
Si      17.09325948      21.83738118       4.92156038
Si      13.66549178      18.72230162       9.87579447
Si      13.65314969      21.81933405      12.33715395
Si      17.07004084      18.70103963      12.33665874
Si      17.08178481      21.83975769       9.87452639
Si      13.66605392      18.70663694      14.80237537
Si      13.65319451      21.84898131      17.27368747
Si      17.09847719      18.70867512      17.27813378
Si      17.08555161      21.82274378      14.81504480
Si      20.50151154      -0.00046063       0.01460835
Si      20.49582972       3.11195473       2.48088071
Si      23.91117353      -0.00191435       2.48461598
Si      23.90659951       3.10580760       0.00082544
Si      20.48687304      -0.00602434       4.93678179
Si      20.48230070       3.12238976       7.39766747
Si      23.89677695      -0.01316225       7.41886975
Si      23.88898685       3.10711954       4.92773366
Si      20.50057644       0.00734161       9.86853900
Si      20.48270343       3.11432851      12.34760926
Si      23.89522512       0.00228488      12.33001129
Si      23.90699575       3.11161795       9.87736565
Si      20.48709296      -0.00533030      14.81178853
Si      20.49959722       3.12662265      17.26980586
Si      23.90907822       0.00303852      17.26884678
Si      23.88823602       3.11974284      14.81032035
Si      20.48550934       6.22429080      -0.00858594
Si      20.47985229       9.35522695       2.45266958
Si      23.90751349       6.23877526       2.46864431
Si      23.88873524       9.34659058       0.00400364
Si      20.49675385       6.23755609       4.93732757
Si      20.48071729       9.34574318       7.38124952
Si      23.88918564       6.25576607       7.37641274
Si      23.90197495       9.36172543       4.94783933
Si      20.49501496       6.21833328       9.86978663
Si      20.48476131       9.37195945      12.32541950
Si      23.89667493       6.24522999      12.30767755
Si      23.92767611       9.36525810       9.86594642
Si      20.48800047       6.25582509      14.80481833
Si      20.48466734       9.36884918      17.24959622
Si      23.91318511       6.24083059      17.26476941
Si      23.87089604       9.34652081      14.81729501
Si      20.47558148      12.46510178      -0.01128292
Si      20.48045468      15.59330663       2.47137725
Si      23.89725379      12.46416872       2.48071023
Si      23.89537086      15.60822641       0.00368412
Si      20.51257574      12.47725559       4.96112946
Si      20.48649739      15.59288878       7.39369694
Si      23.89645008      12.47701044       7.39441375
Si      23.89010408      15.60699818       4.92714349
Si      20.48331435      12.48893398       9.85058476
Si      20.46463450      15.59275206      12.33293172
Si      23.91475610      12.47418284      12.33714020
Si      23.90283103      15.60905289       9.87013044
Si      20.49301062      12.47530814      14.81108564
Si      20.49005089      15.59586886      17.27870618
Si      23.89573846      12.48110877      17.26087085
Si      23.91443121      15.59695127      14.79731738
Si      20.49260747      18.69726968      -0.00599726
Si      20.49035119      21.83252347       2.47141641
Si      23.88527182      18.71510131       2.48346407
Si      23.89827592      21.82137438      -0.01354435
Si      20.48834335      18.70512823       4.94255322
Si      20.50240291      21.83234955       7.40167466
Si      23.88770816      18.71602641       7.39993080
Si      23.89785810      21.84198394       4.93139296
Si      20.48798881      18.73511446       9.87231672
Si      20.50300889      21.83392255      12.33001125
Si      23.91567145      18.70397094      12.34299545
Si      23.90786745      21.82439375       9.87981316
Si      20.49558707      18.72078294      14.79490655
Si      20.48043020      21.83628977      17.27624783
Si      23.90701526      18.71526168      17.29626099
Si      23.89297059      21.82929394      14.80829213
