205
Lattice="172.30981182861035 0.0 0.0 0.0 172.30981182861035 0.0 0.0 0.0 172.30981182861035" Properties=species:S:1:pos:R:3:initial_magmoms:R:1 id=sample_001472 pbc="T T T"
Fe      82.97265997      82.97829826      82.96349826       2.30000000
Fe      84.42962707      84.44893399      81.55593383       2.30000000
Fe      85.86503657      85.86690152      80.12344683       2.30000000
Fe      87.26888627      87.27373264      78.66339522       2.30000000
Fe      88.72935321      88.71551709      77.25402151       2.30000000
Fe      90.16227809      90.14450901      75.82779003       2.30000000
Fe      91.59595429      91.56962586      74.39468928       2.30000000
Fe      93.02881740      93.00788922      72.95333856       2.30000000
Fe      84.40463812      81.56320286      84.41603714       2.30000000
Fe      85.85680687      82.97921236      82.99369311       2.30000000
Fe      87.31746023      84.44277638      81.57008204       2.30000000
Fe      88.75064549      85.85890880      80.11631192       2.30000000
Fe      90.12896605      87.30189578      78.66653592       2.30000000
Fe      91.56229603      88.69566529      77.22715196       2.30000000
Fe      92.99905844      90.15143777      75.83940861       2.30000000
Fe      94.42827436      91.61870700      74.35821468       2.30000000
Fe      85.85554599      80.13003716      85.84085659       2.30000000
Fe      87.26681443      81.55192512      84.42255452       2.30000000
Fe      88.70379006      82.97105718      82.99958236       2.30000000
Fe      90.14368064      84.40187069      81.56604302       2.30000000
Fe      91.61700569      85.86325479      80.13680804       2.30000000
Fe      92.99910794      87.27642832      78.71696608       2.30000000
Fe      94.50377946      88.72194210      77.24727375       2.30000000
Fe      87.29904358      78.68411725      87.28121699       2.30000000
Fe      88.69577035      80.11153628      85.83029784       2.30000000
Fe      90.15075123      81.55169911      84.42739499       2.30000000
Fe      91.58081804      82.99235470      83.00209544       2.30000000
Fe      92.98150396      84.37638577      81.55914107       2.30000000
Fe      94.45872465      85.86254523      80.15454138       2.30000000
Fe      95.90067901      87.29046106      78.66222066       2.30000000
Fe      88.70549534      77.25253507      88.72703478       2.30000000
Fe      90.15854319      78.71597269      87.27984318       2.30000000
Fe      91.57434745      80.10439899      85.85084098       2.30000000
Fe      93.00893483      81.53283030      84.40631701       2.30000000
Fe      94.47149013      82.98478061      82.98789813       2.30000000
Fe      95.87907127      84.44569760      81.55716789       2.30000000
Fe      90.16680576      75.82044118      90.15128465       2.30000000
Fe      91.59774355      77.27077367      88.71452490       2.30000000
Fe      93.02170390      78.69170865      87.26344099       2.30000000
Fe      94.45885541      80.10775490      85.86200912       2.30000000
Fe      95.90244370      81.56032229      84.42399030       2.30000000
Fe      91.58570414      74.35981235      91.60016188       2.30000000
Fe      93.02037857      75.80238405      90.16009081       2.30000000
Fe      94.45196249      77.23913639      88.70293455       2.30000000
Fe      95.87202591      78.67821131      87.27139227       2.30000000
Fe      93.02564001      72.98335107      93.02566774       2.30000000
Fe      94.44498527      74.38687336      91.58286762       2.30000000
Fe      81.54629235      84.43525942      84.40466819       2.30000000
Fe      83.02333855      85.85829682      83.04507280       2.30000000
Fe      84.42141972      87.27744540      81.57261718       2.30000000
Fe      85.84559513      88.71496500      80.10482589       2.30000000
Fe      87.28669777      90.15201017      78.69482007       2.30000000
Fe      88.74077936      91.58856876      77.22920934       2.30000000
Fe      90.14433626      93.03960422      75.85428099       2.30000000
Fe      91.58373687      94.40625704      74.41049524       2.30000000
Fe      82.98659822      82.97830292      85.85950267       2.30000000
Fe      84.42597595      84.43402287      84.42071981       2.30000000
Fe      85.83342239      85.86700979      83.00097901       2.30000000
Fe      87.27457155      87.29852967      81.55057769       2.30000000
Fe      88.73642528      88.69070489      80.13731942       2.30000000
Fe      90.17416383      90.16423552      78.71275496       2.30000000
Fe      91.60006461      91.58651381      77.25152255       2.30000000
Fe      84.40038596      81.56498800      87.28096268       2.30000000
Fe      85.82573108      82.97810101      85.86889348       2.30000000
Fe      87.25744732      84.42347458      84.43849370       2.30000000
Fe      88.69929131      85.86888492      83.00324118       2.30000000
Fe      90.12318760      87.28468161      81.57704531       2.30000000
Fe      91.55609405      88.73180478      80.14641555       2.30000000
Fe      93.02150430      90.17386515      78.68307360       2.30000000
Fe      85.81854384      80.08973408      88.71194876       2.30000000
Fe      87.28451834      81.55014077      87.29950934       2.30000000
Fe      88.72596618      82.97260425      85.85291383       2.30000000
Fe      90.14455753      84.39647142      84.40394345       2.30000000
Fe      91.56649890      85.84627682      82.99140086       2.30000000
Fe      93.04517764      87.28229151      81.52992543       2.30000000
Fe      87.30675078      78.67711620      90.12231015       2.30000000
Fe      88.72518565      80.12196209      88.73983037       2.30000000
Fe      90.13564978      81.55057798      87.27843778       2.30000000
Fe      91.61116858      82.98706305      85.83082693       2.30000000
Fe      93.01615470      84.43696889      84.41950244       2.30000000
Fe      88.70803808      77.25898145      91.58887317       2.30000000
Fe      90.17466112      78.68587903      90.11287919       2.30000000
Fe      91.59069741      80.13235052      88.69241083       2.30000000
Fe      93.01817831      81.59294129      87.32074554       2.30000000
Fe      90.15265931      75.83842983      93.01039801       2.30000000
Fe      91.59678232      77.23714109      91.58667255       2.30000000
Fe      93.01340373      78.69774700      90.18328278       2.30000000
Fe      91.58573089      74.37460263      94.46698564       2.30000000
Fe      80.13812076      85.86153509      85.84891913       2.30000000
Fe      81.55388307      87.30940633      84.38326045       2.30000000
Fe      82.98481194      88.71930945      82.98095436       2.30000000
Fe      84.43727256      90.15873885      81.55434487       2.30000000
Fe      85.83231462      91.58157438      80.11186968       2.30000000
Fe      87.29361018      93.02918824      78.68610623       2.30000000
Fe      88.72714484      94.46218784      77.25243888       2.30000000
Fe      81.55028494      84.42263523      87.28994241       2.30000000
Fe      82.98062159      85.86639777      85.82551157       2.30000000
Fe      84.41483727      87.29230667      84.40943786       2.30000000
Fe      85.85575958      88.71991911      82.98816635       2.30000000
Fe      87.29220650      90.15539481      81.53669461       2.30000000
Fe      88.70190774      91.60062541      80.14431079       2.30000000
Fe      90.12878428      93.00759677      78.67105252       2.30000000
Fe      82.97526348      82.96457877      88.70841600       2.30000000
Fe      84.45454868      84.42441110      87.29776508       2.30000000
Fe      85.80019623      85.84469023      85.86696304       2.30000000
Fe      87.30071215      87.32746851      84.41965724       2.30000000
Fe      88.70109869      88.71795064      82.97494024       2.30000000
Fe      90.12324010      90.16819670      81.56505102       2.30000000
Fe      84.46169410      81.54446216      90.14280476       2.30000000
Fe      85.86460583      82.99205614      88.74313611       2.30000000
Fe      87.28142793      84.41683776      87.25896065       2.30000000
Fe      88.71586721      85.85795017      85.84902306       2.30000000
Fe      90.15831902      87.31008987      84.40861748       2.30000000
Fe      85.87312618      80.10066542      91.58460754       2.30000000
Fe      87.26712359      81.57436588      90.13839433       2.30000000
Fe      88.73162899      82.98510555      88.70871384       2.30000000
Fe      90.13731418      84.39629202      87.28500729       2.30000000
Fe      91.58632092      85.85102889      85.87150968       2.30000000
Fe      87.26471056      78.67213852      93.02070657       2.30000000
Fe      88.69716009      80.13326364      91.60333880       2.30000000
Fe      90.14927462      81.54861887      90.15150748       2.30000000
Fe      88.72668402      77.28416723      94.44317581       2.30000000
Fe      90.11578830      78.66952137      93.02769937       2.30000000
Fe      78.68793374      87.30210167      87.30164019       2.30000000
Fe      80.11701209      88.71861718      85.85068807       2.30000000
Fe      81.61043823      90.14786036      84.39755258       2.30000000
Fe      83.00954393      91.60742013      83.00396714       2.30000000
Fe      84.43607769      93.02683279      81.51796293       2.30000000
Fe      85.88968806      94.45477873      80.11374364       2.30000000
Fe      87.28106477      95.88476918      78.67465629       2.30000000
Fe      80.14929685      85.84978341      88.71388283       2.30000000
Fe      81.52770225      87.30257510      87.29585024       2.30000000
Fe      82.97903468      88.71024547      85.86199988       2.30000000
Fe      84.41058681      90.14193004      84.43740027       2.30000000
Fe      85.85937484      91.58824849      82.97997290       2.30000000
Fe      87.28558362      93.03137269      81.55334368       2.30000000
Fe      81.56086795      84.43309421      90.13318300       2.30000000
Fe      82.98794795      85.87137323      88.71036099       2.30000000
Fe      84.41871527      87.25514341      87.27845948       2.30000000
Fe      85.85073559      88.73793623      85.83990514       2.30000000
Fe      87.29951168      90.15351115      84.45970053       2.30000000
Fe      83.00149050      82.99387994      91.59678738       2.30000000
Fe      84.41903014      84.42864359      90.15946134       2.30000000
Fe      85.85463668      85.86431306      88.71490989       2.30000000
Fe      87.30181650      87.27169472      87.28103431       2.30000000
Fe      88.69958248      88.71919548      85.86394749       2.30000000
Fe      84.42107371      81.56173057      93.04011002       2.30000000
Fe      85.84976062      82.97490601      91.59551522       2.30000000
Fe      87.28551588      84.41382550      90.12485636       2.30000000
Fe      88.74298857      85.86524347      88.73764322       2.30000000
Fe      85.87195434      80.11682954      94.46831140       2.30000000
Fe      87.29475154      81.54618162      93.02665341       2.30000000
Fe      87.26841893      78.66759212      95.87272395       2.30000000
Fe      77.22892653      88.75665048      88.72189040       2.30000000
Fe      78.71227876      90.14047476      87.28206777       2.30000000
Fe      80.11349872      91.58961144      85.85818721       2.30000000
Fe      81.56518621      93.04030100      84.42706004       2.30000000
Fe      82.97742792      94.45502854      82.99307091       2.30000000
Fe      84.42344546      95.86598034      81.55747964       2.30000000
Fe      78.69181068      87.29086402      90.13765550       2.30000000
Fe      80.14856068      88.72183910      88.72026228       2.30000000
Fe      81.55605532      90.16458459      87.26200209       2.30000000
Fe      82.98420633      91.57674650      85.86640944       2.30000000
Fe      84.42170633      93.04037396      84.44572000       2.30000000
Fe      80.13555681      85.87419969      91.60150291       2.30000000
Fe      81.52920824      87.28638864      90.14728188       2.30000000
Fe      82.94934295      88.74403851      88.72350031       2.30000000
Fe      84.41671307      90.20694390      87.27483148       2.30000000
Fe      85.86709738      91.57011569      85.85214044       2.30000000
Fe      81.55489965      84.42142956      93.05894144       2.30000000
Fe      83.00070732      85.86786884      91.59740141       2.30000000
Fe      84.42546531      87.29898191      90.20404061       2.30000000
Fe      85.86509832      88.70799578      88.72637075       2.30000000
Fe      83.01717575      82.99054498      94.44565665       2.30000000
Fe      84.41738911      84.39715665      93.04132827       2.30000000
Fe      85.83007815      85.87485305      91.57753221       2.30000000
Fe      84.41996981      81.53498491      95.90491468       2.30000000
Fe      75.81632519      90.13253764      90.13912437       2.30000000
Fe      77.27034505      91.56449977      88.72823932       2.30000000
Fe      78.69514165      93.00109532      87.30638114       2.30000000
Fe      80.08488716      94.43651643      85.82914373       2.30000000
Fe      81.54158131      95.87266092      84.39972963       2.30000000
Fe      77.25794216      88.69153955      91.60001438       2.30000000
Fe      78.69600766      90.17124473      90.15924193       2.30000000
Fe      80.13220148      91.58090010      88.76235897       2.30000000
Fe      81.54308224      93.00460721      87.28068159       2.30000000
Fe      78.66728464      87.29861437      93.03221131       2.30000000
Fe      80.11422417      88.77354705      91.61045193       2.30000000
Fe      81.56067044      90.16212648      90.13209117       2.30000000
Fe      80.11743533      85.81712028      94.43016775       2.30000000
Fe      81.54494056      87.27332614      93.03108409       2.30000000
Fe      81.54442354      84.39636492      95.89172574       2.30000000
Fe      74.37022980      91.58059340      91.60451842       2.30000000
Fe      75.83537457      93.00759882      90.14943559       2.30000000
Fe      77.26608151      94.46536286      88.72547444       2.30000000
Fe      78.69272491      95.87774176      87.25442397       2.30000000
Fe      75.80300187      90.13468499      92.99189245       2.30000000
Fe      77.26736284      91.60327707      91.51864166       2.30000000
Fe      78.65944733      93.03490904      90.15470987       2.30000000
Fe      77.24624731      88.70418127      94.44975315       2.30000000
Fe      78.69443715      90.15427588      93.00863485       2.30000000
Fe      78.72094229      87.29004569      95.91639649       2.30000000
Fe      72.92083847      92.99973073      93.04980307       2.30000000
Fe      74.39237562      94.44020670      91.58331930       2.30000000
Fe      74.39671074      91.61815461      94.44636449       2.30000000
