500
Lattice="24.50377150212828 0.0 0.0 0.0 29.355781410944765 0.0 0.0 0.0 26.1028253772676" Properties=species:S:1:pos:R:3 id=sample_001141 pbc="F F F"
Si      -0.00230214       0.00173615       0.01095534
Si      -0.00295172       2.90355754       2.60808691
Si       2.46723788       0.00690372       2.63213071
Si       2.42158333       2.93808087      -0.01297567
Si       0.02839783      -0.00745388       5.24374896
Si      -0.02429704       2.96851370       7.84705260
Si       2.47434018      -0.01417231       7.85570440
Si       2.43928185       2.92408902       5.22129181
Si       0.02948526       0.01441057      10.42536012
Si      -0.00695515       2.93875695      13.04451670
Si       2.43657617      -0.01330680      13.00854229
Si       2.42770021       2.94252706      10.44990649
Si      -0.01094846      -0.00366427      15.67541545
Si       0.00793936       2.94653875      18.26518761
Si       2.45018248       0.00441382      18.28604514
Si       2.43856510       2.94130879      15.64917324
Si       0.03089042       0.00074109      20.88728920
Si       0.00020074       2.96285690      23.50676150
Si       2.44908560       0.00576674      23.49325464
Si       2.46954521       2.95313869      20.88489151
Si       0.00313028       5.87822191      -0.00113063
Si       0.01035369       8.81216593       2.60593172
Si       2.46041924       5.85245950       2.62414501
Si       2.43560687       8.79865573       0.00428281
Si      -0.01814080       5.88703786       5.24873169
Si      -0.00655051       8.84211010       7.82726275
Si       2.46507891       5.86898198       7.83277667
Si       2.43975997       8.79498541       5.21468025
Si       0.00812361       5.88855083      10.44494507
Si       0.01050479       8.82710005      13.04893590
Si       2.42086385       5.88093000      13.06184035
Si       2.47020738       8.80533619      10.41551099
Si       0.00837037       5.86619580      15.63174002
Si       0.03852843       8.80143784      18.30418718
Si       2.46444339       5.90324963      18.27485118
Si       2.45217324       8.81194871      15.62713673
Si       0.00187022       5.86339618      20.84159888
Si      -0.04011774       8.80467135      23.50433711
Si       2.45788127       5.87851851      23.52015414
Si       2.46148798       8.79071358      20.88613128
Si       0.00431837      11.75492127      -0.00087994
Si       0.03115582      14.70567191       2.59765075
Si       2.45643387      11.75351096       2.64869874
Si       2.47615578      14.66807205      -0.00375613
Si       0.02754254      11.74438119       5.20564049
Si       0.00090184      14.69755998       7.82874865
Si       2.43883758      11.76077201       7.85157821
Si       2.45837879      14.67743662       5.21194821
Si       0.01450596      11.73545598      10.45573269
Si       0.01338982      14.68088154      13.05251343
Si       2.42884905      11.74664130      13.03308284
Si       2.43583449      14.67569217      10.45625588
Si       0.01346913      11.73106544      15.67795109
Si      -0.02917010      14.68955262      18.26942999
Si       2.46557170      11.74220965      18.28982291
Si       2.41386529      14.67258803      15.67986403
Si      -0.03175340      11.69545337      20.86686572
Si       0.00108301      14.70098330      23.50641833
Si       2.44228253      11.72775158      23.49859552
Si       2.45986098      14.68109965      20.89074656
Si       0.01172227      17.60789290       0.01038893
Si       0.01454621      20.55327484       2.59546852
Si       2.46647323      17.59857151       2.61303101
Si       2.44384618      20.52705284      -0.00145111
Si       0.01117729      17.62620159       5.23248452
Si      -0.00839097      20.56437670       7.84322221
Si       2.45235070      17.61681237       7.83436096
Si       2.44019753      20.55982226       5.22544654
Si      -0.01698062      17.61246263      10.43497960
Si      -0.00642266      20.54188833      13.04446598
Si       2.46691630      17.62682484      13.07554797
Si       2.46356219      20.54463575      10.42468743
Si      -0.01042528      17.60242593      15.63811792
Si      -0.00529454      20.54949081      18.26772569
Si       2.43808727      17.60262825      18.27651831
Si       2.45654577      20.55126607      15.65102378
Si       0.01732641      17.60457888      20.88820844
Si       0.01153910      20.54514348      23.47450030
Si       2.46006524      17.60229338      23.49970019
Si       2.43133616      20.53021878      20.89670182
Si      -0.00873089      23.48931592       0.00107222
Si      -0.00460440      26.41633576       2.57015774
Si       2.45186743      23.49865802       2.58536402
Si       2.46655158      26.40429177      -0.01124531
Si       0.00399092      23.48878511       5.22918507
Si      -0.00394162      26.43265476       7.82607872
Si       2.48877318      23.49266040       7.85053072
Si       2.43480330      26.41860585       5.22989262
Si      -0.00211920      23.48840135      10.42211755
Si      -0.00964141      26.42757650      13.03642247
Si       2.45824588      23.48892607      13.03714797
Si       2.45351822      26.40223592      10.43449215
Si       0.00052274      23.50793769      15.65324131
Si       0.01694761      26.42712023      18.27359451
Si       2.47160235      23.49833653      18.28980848
Si       2.44897403      26.41557237      15.63968767
Si      -0.01685136      23.49791485      20.88492414
Si      -0.00687146      26.41535553      23.50326216
Si       2.47411859      23.48382552      23.48227321
Si       2.47134877      26.42231004      20.88653246
Si       4.93326540      -0.00455592       0.01525820
Si       4.90842261       2.92695883       2.62917789
Si       7.34692986      -0.01260704       2.62020486
Si       7.29968975       2.93050252       0.00407576
Si       4.89146346      -0.00490320       5.24067217
Si       4.89740909       2.92757563       7.83023323
Si       7.34855195       0.00491713       7.83317293
Si       7.33659444       2.93631999       5.22988457
Si       4.90071691      -0.00033946      10.45700187
Si       4.89417338       2.91507212      13.05629781
Si       7.36938369       0.00764217      13.04085795
Si       7.36700777       2.94062569      10.45753253
Si       4.90836181      -0.00531473      15.65888088
Si       4.90175421       2.92868177      18.26402284
Si       7.36910145      -0.00675731      18.29532666
Si       7.34902552       2.93864679      15.64402864
Si       4.87767833       0.03113058      20.87916910
Si       4.90875495       2.95119529      23.47668895
Si       7.34852464      -0.01886963      23.47249431
Si       7.35073152       2.92593425      20.88388581
Si       4.90720826       5.87534107      -0.01416336
Si       4.92163554       8.79679801       2.61758914
Si       7.32606784       5.86431902       2.63388715
Si       7.34659543       8.81291617       0.00367831
Si       4.89342738       5.88679133       5.23022760
Si       4.92300393       8.82265144       7.82433933
Si       7.33762482       5.85880223       7.83338776
Si       7.36045424       8.81620156       5.18776366
Si       4.89139091       5.86932354      10.43466682
Si       4.90050223       8.80866978      13.05581723
Si       7.34945460       5.85009910      13.04860782
Si       7.32737882       8.79587633      10.43077256
Si       4.90454647       5.88484305      15.65813106
Si       4.89783420       8.82379872      18.27291712
Si       7.34403586       5.85501152      18.27872008
Si       7.35101918       8.79664096      15.67380618
Si       4.89162306       5.87922712      20.87063760
Si       4.90330306       8.81132617      23.48006155
Si       7.35255501       5.88002068      23.50082668
Si       7.35602085       8.80030763      20.87267886
Si       4.89290413      11.73942946      -0.00649039
Si       4.87299391      14.68827548       2.63049661
Si       7.35198192      11.73910157       2.60511174
Si       7.36595780      14.67895919      -0.00626235
Si       4.88195868      11.74170687       5.23184141
Si       4.89508807      14.66059968       7.83960886
Si       7.37267906      11.75645621       7.85530436
Si       7.34879142      14.68617263       5.22092569
Si       4.89672574      11.73387716      10.43177491
Si       4.90376328      14.66879810      13.06721796
Si       7.35560652      11.75823758      13.05709589
Si       7.36220884      14.68257623      10.41304729
Si       4.90621626      11.73365031      15.65054372
Si       4.92492768      14.65394996      18.24377087
Si       7.33733339      11.75682346      18.28322372
Si       7.34532136      14.67515973      15.66040693
Si       4.90390889      11.76576272      20.90178676
Si       4.89114744      14.66638245      23.49336702
Si       7.36637704      11.74193114      23.48910446
Si       7.36010353      14.69290351      20.87981042
Si       4.88611163      17.61351990       0.00507647
Si       4.90335086      20.56804747       2.61389064
Si       7.35250610      17.62273712       2.59232036
Si       7.36754922      20.56304001       0.01345146
Si       4.91893455      17.61184812       5.22677516
Si       4.89124521      20.53757670       7.82027089
Si       7.36536702      17.62496538       7.83172851
Si       7.35555529      20.54845461       5.23296503
Si       4.89702529      17.59290931      10.46251282
Si       4.91155550      20.56408930      13.07533984
Si       7.35969340      17.61860386      13.03737755
Si       7.33910885      20.54723856      10.43025805
Si       4.88806060      17.61999455      15.66134608
Si       4.87830839      20.52047625      18.27582753
Si       7.34987647      17.63571233      18.26619211
Si       7.37465686      20.54113389      15.65556509
Si       4.91260053      17.62754363      20.90022757
Si       4.87646879      20.52517947      23.52308062
Si       7.34217831      17.60115401      23.48545562
Si       7.39429755      20.57236927      20.87096435
Si       4.89601825      23.49388961       0.01527978
Si       4.88578198      26.40880232       2.62674560
Si       7.35056833      23.48237794       2.62291264
Si       7.36069552      26.44699746       0.00202913
Si       4.90549758      23.48624834       5.20337427
Si       4.90968104      26.40868150       7.83880090
Si       7.36783034      23.48633215       7.81377789
Si       7.36001579      26.41954490       5.23156442
Si       4.90923362      23.47965786      10.43013391
Si       4.90444394      26.43383757      13.05682218
Si       7.35017982      23.47829430      13.03655900
Si       7.34740296      26.41184569      10.46964584
Si       4.89136351      23.47475695      15.67988992
Si       4.90551864      26.44056203      18.28210529
Si       7.36130300      23.46870718      18.29548537
Si       7.37127849      26.41908554      15.63550363
Si       4.88373414      23.48825188      20.89100012
Si       4.90113327      26.41487762      23.50702670
Si       7.37340323      23.51342931      23.46910140
Si       7.36273246      26.43528668      20.90912226
Si       9.79365561      -0.01597272       0.01195151
Si       9.80841375       2.93490136       2.59697624
Si      12.25421346      -0.00831316       2.59729470
Si      12.23706036       2.92319121       0.00810265
Si       9.80447052      -0.00122121       5.21109354
Si       9.80357220       2.94298417       7.83397141
Si      12.25757944       0.03609840       7.84701740
Si      12.26920734       2.94629195       5.22030488
Si       9.81093587      -0.00535722      10.44478467
Si       9.79443149       2.92507212      13.05356973
Si      12.23040962      -0.02255221      13.06402105
Si      12.26285212       2.93886526      10.45137571
Si       9.82546202       0.01542927      15.64041192
Si       9.79682793       2.94964779      18.27298792
Si      12.25966586      -0.00368891      18.26884686
Si      12.26033644       2.95829624      15.67496032
Si       9.81217723       0.01214621      20.87865613
Si       9.80045159       2.92177579      23.49627288
Si      12.25415436       0.01915237      23.52499885
Si      12.25669420       2.92601818      20.89846302
Si       9.77785762       5.85142331      -0.02345535
Si       9.79918060       8.81327885       2.62598440
Si      12.26412370       5.86852998       2.60086394
Si      12.25875427       8.80731321      -0.01147483
Si       9.79553898       5.86405981       5.22901540
Si       9.82912551       8.83333850       7.80589146
Si      12.23665363       5.85797065       7.84775066
Si      12.22600519       8.84868375       5.23519252
Si       9.81086414       5.86257601      10.45845063
Si       9.78642503       8.79370544      13.05785854
Si      12.25136757       5.89413662      13.06438152
Si      12.25402839       8.79535662      10.45228101
Si       9.79153990       5.89409427      15.69033217
Si       9.81769512       8.79470188      18.26995917
Si      12.27337932       5.87081908      18.25191415
Si      12.23616095       8.80660865      15.68052368
Si       9.80812574       5.87123893      20.90272024
Si       9.79859458       8.77682357      23.48334945
Si      12.26760294       5.87592568      23.48281953
Si      12.23381761       8.81336254      20.85106955
Si       9.79484626      11.73804625      -0.01200144
Si       9.80131154      14.67741266       2.61952471
Si      12.22679034      11.72023485       2.61981285
Si      12.25421817      14.66858192       0.00030984
Si       9.82736520      11.72837120       5.24444097
Si       9.82685126      14.68108544       7.80751867
Si      12.26031997      11.74019132       7.78546859
Si      12.25080290      14.69220693       5.22679627
Si       9.78558465      11.74258853      10.44728688
Si       9.80758384      14.68708971      13.05970868
Si      12.26281481      11.74805366      13.04861841
Si      12.23650898      14.67647510      10.43639196
Si       9.77797586      11.74949795      15.64205660
Si       9.83315221      14.71329961      18.27126637
Si      12.25287002      11.75387580      18.28440391
Si      12.24531673      14.66021616      15.66685891
Si       9.79651755      11.74380448      20.88101454
Si       9.80014573      14.65619165      23.51049491
Si      12.25349702      11.73217734      23.50530827
Si      12.25903398      14.66872329      20.88117894
Si       9.80434426      17.61856050       0.00253079
Si       9.80509176      20.54291104       2.59638016
Si      12.26036497      17.62622687       2.61261358
Si      12.23439490      20.55303426       0.00448520
Si       9.81233491      17.60747613       5.22533861
Si       9.81975974      20.57472823       7.82311844
Si      12.24249446      17.58577096       7.82163932
Si      12.24118983      20.54187177       5.20659843
Si       9.79118185      17.64107456      10.44317109
Si       9.78990008      20.55879956      13.03563539
Si      12.25017283      17.63828778      13.08566374
Si      12.24499362      20.56008915      10.41628659
Si       9.79949698      17.63153201      15.68175330
Si       9.79334443      20.56263822      18.23738637
Si      12.26169191      17.61023962      18.27493964
Si      12.24920068      20.54072896      15.68447966
Si       9.81373786      17.61693761      20.87819750
Si       9.80522299      20.56087938      23.49627378
Si      12.25258295      17.61330233      23.51254297
Si      12.26914971      20.54446719      20.88263843
Si       9.81195066      23.47370053      -0.00582588
Si       9.81535332      26.42558618       2.60433840
Si      12.25701123      23.48397737       2.61168635
Si      12.24878540      26.41158471      -0.00971229
Si       9.77402414      23.47959515       5.21723958
Si       9.80643670      26.42917497       7.84064110
Si      12.25916414      23.49024001       7.85162837
Si      12.22556056      26.44261128       5.22095722
Si       9.78396132      23.48972567      10.44442348
Si       9.79979621      26.42718183      13.06364787
Si      12.23528764      23.48328708      13.04543907
Si      12.26826390      26.42020006      10.43673457
Si       9.79273922      23.48051304      15.66210259
Si       9.82281717      26.42651549      18.24518477
Si      12.22631110      23.49023794      18.27649735
Si      12.24873493      26.40795607      15.67642853
Si       9.80225477      23.48464474      20.90351061
Si       9.81149965      26.42493357      23.51270814
Si      12.24797745      23.48173622      23.50005584
Si      12.26378060      26.42621255      20.86912171
Si      14.71083396       0.01970077      -0.00857779
Si      14.69509362       2.95364739       2.61649733
Si      17.15179651      -0.00233243       2.60709972
Si      17.12237270       2.91958495      -0.00273662
Si      14.70889291      -0.02040345       5.23064481
Si      14.70031225       2.94288076       7.84126280
Si      17.14058088      -0.00954646       7.80381983
Si      17.13842097       2.94814944       5.24749169
Si      14.72350796       0.00518016      10.42954953
Si      14.71508969       2.92730428      13.06248864
Si      17.16749404       0.02327733      13.07288779
Si      17.15693231       2.90686022      10.43590416
Si      14.67688425      -0.00890616      15.67038142
Si      14.71497659       2.93643108      18.26873446
Si      17.15727613      -0.00424203      18.26279486
Si      17.15347692       2.94209734      15.66670284
Si      14.70262031      -0.01283292      20.87228736
Si      14.70530279       2.92979141      23.52767034
Si      17.14771838      -0.01702758      23.47741897
Si      17.18243617       2.95503784      20.89148610
Si      14.70510924       5.88076556       0.02518234
Si      14.74453918       8.80910340       2.61899942
Si      17.14767175       5.88358537       2.60715243
Si      17.13630207       8.80165863      -0.00737205
Si      14.69691795       5.88583737       5.21401486
Si      14.69739780       8.78633721       7.82681625
Si      17.14232914       5.84590503       7.82143911
Si      17.15871470       8.79893736       5.23518139
Si      14.71350851       5.87165143      10.42778733
Si      14.69716162       8.79849268      13.04535271
Si      17.15592514       5.88176794      13.03450503
Si      17.16241178       8.79879603      10.43456996
Si      14.71172320       5.85923350      15.65992916
Si      14.70705492       8.82616965      18.26606644
Si      17.15922842       5.85710049      18.27905846
Si      17.17522060       8.82423773      15.65630712
Si      14.68959842       5.86302561      20.90632374
Si      14.69148445       8.81568577      23.48751340
Si      17.15168095       5.85789441      23.48660802
Si      17.14663606       8.80823425      20.86250045
Si      14.71624617      11.73332001       0.01281458
Si      14.69285443      14.66769210       2.61043684
Si      17.14316770      11.74012482       2.63334001
Si      17.14609579      14.69078550      -0.01624346
Si      14.70463761      11.72920784       5.22346560
Si      14.71365630      14.64734851       7.80825433
Si      17.15628466      11.73793360       7.84301393
Si      17.12933607      14.67835809       5.22813338
Si      14.71707284      11.74053128      10.45095598
Si      14.71483405      14.70140820      13.04936686
Si      17.12510007      11.75312852      13.04863994
Si      17.12825296      14.66217693      10.46363287
Si      14.69099664      11.72429208      15.69117941
Si      14.68506387      14.66442158      18.24916780
Si      17.14189306      11.73629269      18.29834592
Si      17.15648026      14.69299891      15.64334970
Si      14.71239996      11.73014559      20.86584367
Si      14.71107877      14.67925078      23.49536257
Si      17.13669280      11.75909615      23.49847684
Si      17.15833973      14.68504720      20.86828275
Si      14.72005931      17.62055926       0.01300401
Si      14.69064086      20.52429304       2.62003822
Si      17.15376570      17.60795340       2.58059516
Si      17.14339274      20.56252516      -0.00024360
Si      14.70364437      17.60438484       5.24058296
Si      14.69602409      20.56648186       7.83767350
Si      17.15020169      17.59144448       7.82895083
Si      17.13597037      20.57157954       5.22566429
Si      14.72555923      17.62743298      10.43036039
Si      14.68627795      20.56744984      13.06694566
Si      17.19296393      17.59763807      13.06524036
Si      17.13384622      20.55214161      10.42698406
Si      14.69983807      17.58900015      15.66574063
Si      14.70807190      20.54641939      18.27003623
Si      17.14956067      17.61649793      18.27325089
Si      17.15647958      20.57188549      15.65038192
Si      14.70411781      17.60987081      20.88213997
Si      14.69550739      20.53657411      23.48188637
Si      17.16460668      17.62728929      23.48914035
Si      17.14362000      20.54216059      20.87424714
Si      14.69624531      23.47993259      -0.00341680
Si      14.72055803      26.43018896       2.62728015
Si      17.16107647      23.46798797       2.61162079
Si      17.16596371      26.42495873      -0.01386192
Si      14.68011742      23.48065885       5.20674235
Si      14.72049947      26.42709298       7.84166631
Si      17.16536960      23.47862716       7.81471202
Si      17.17413646      26.41063960       5.23682958
Si      14.67670537      23.50654219      10.44116739
Si      14.71727554      26.42382490      13.02881692
Si      17.16340241      23.50097189      13.06457287
Si      17.14290814      26.40501075      10.45667688
Si      14.70789156      23.47602453      15.64324465
Si      14.70953976      26.42767196      18.28535285
Si      17.15725265      23.48498832      18.27524611
Si      17.15943795      26.41740665      15.66279725
Si      14.71747895      23.46272276      20.89258607
Si      14.67950781      26.46044244      23.48571576
Si      17.13680328      23.49375740      23.48792352
Si      17.15647898      26.40802150      20.88406764
Si      19.61222776      -0.01705674      -0.00875964
Si      19.60368000       2.92163096       2.61806706
Si      22.06608753       0.00108988       2.60399837
Si      22.02115358       2.95611673      -0.00465375
Si      19.57840553       0.01750206       5.20902376
Si      19.58909873       2.92731881       7.83522727
Si      22.04870948      -0.01923176       7.82260967
Si      22.05186827       2.97120349       5.24137275
Si      19.59493310      -0.00155530      10.44880790
Si      19.59858772       2.92855581      13.03740263
Si      22.07057417       0.00957675      13.05013971
Si      22.06777964       2.94617905      10.42951233
Si      19.59745604       0.01354262      15.65067725
Si      19.61073950       2.93933261      18.28663352
Si      22.05455262       0.02536453      18.28343330
Si      22.03940352       2.94834970      15.66177864
Si      19.61468633      -0.00774320      20.89638918
Si      19.62655435       2.94208837      23.50436809
Si      22.06145632       0.00383395      23.48503989
Si      22.04702905       2.93883468      20.86883291
Si      19.61378453       5.85785664      -0.01166203
Si      19.61441384       8.82240214       2.62209561
Si      22.04340906       5.85970912       2.59939105
Si      22.02032241       8.80838530       0.01441647
Si      19.59514128       5.85922497       5.24005908
Si      19.60368268       8.84691255       7.84833396
Si      22.05840360       5.87488892       7.80664597
Si      22.06844850       8.80143918       5.21860746
Si      19.60274332       5.85274440      10.47037257
Si      19.61386670       8.80510025      13.06870713
Si      22.04757389       5.88287679      13.05004313
Si      22.07243957       8.78868570      10.42268145
Si      19.58862761       5.86530449      15.67789891
Si      19.59698714       8.82856741      18.26974584
Si      22.05497429       5.87559936      18.25091856
Si      22.06594177       8.80925650      15.64850787
Si      19.60365699       5.87892686      20.88609001
Si      19.58764120       8.77988480      23.49882176
Si      22.07148469       5.88469393      23.45831875
Si      22.03507031       8.80944574      20.88797929
Si      19.59807694      11.73879064       0.01478629
Si      19.59828601      14.65519998       2.64028990
Si      22.02813426      11.76257744       2.60418259
Si      22.05004585      14.65679582       0.01831715
Si      19.59963503      11.75160231       5.21968180
Si      19.60274192      14.68476721       7.83504500
Si      22.06719640      11.74626919       7.82269898
Si      22.06085459      14.66480346       5.20537905
Si      19.60737314      11.73949095      10.44268606
Si      19.59699652      14.69320602      13.04082084
Si      22.06125417      11.74386063      13.04244327
Si      22.09347303      14.67214055      10.42036433
Si      19.60699989      11.72257586      15.69270666
Si      19.60475753      14.69839079      18.26110923
Si      22.06283687      11.71271314      18.27658392
Si      22.05105530      14.66177856      15.65861923
Si      19.62320375      11.72597084      20.86043164
Si      19.60065763      14.67509731      23.50301003
Si      22.05160960      11.73685560      23.48739761
Si      22.03385757      14.66940914      20.88935015
Si      19.59170113      17.61801177      -0.00632554
Si      19.58985110      20.55318193       2.59853789
Si      22.05760545      17.61343893       2.62456238
Si      22.07493154      20.54042235      -0.01458921
Si      19.62058493      17.61728054       5.24769394
Si      19.60766292      20.54956590       7.84729815
Si      22.04467650      17.61775403       7.81323470
Si      22.04486346      20.56059468       5.22738541
Si      19.59853671      17.60872440      10.42980901
Si      19.58537704      20.54146908      13.04820479
Si      22.05345951      17.60056641      13.05361893
Si      22.05561183      20.54721207      10.44399300
Si      19.60401725      17.61483640      15.65559086
Si      19.61804182      20.53332647      18.26069785
Si      22.04693270      17.57609569      18.26674977
Si      22.03626823      20.57489175      15.66007789
Si      19.60027978      17.60601035      20.87938450
Si      19.61635088      20.55184784      23.48681726
Si      22.03600309      17.60123209      23.50981509
Si      22.05839556      20.54028175      20.86298017
Si      19.57725021      23.48564052       0.01155152
Si      19.57270997      26.42418246       2.59365771
Si      22.07121341      23.48850763       2.65558110
Si      22.07162073      26.43137677      -0.00427852
Si      19.59614810      23.50387215       5.18496381
Si      19.59560356      26.42413423       7.82839862
Si      22.05534673      23.46434600       7.82971812
Si      22.05687904      26.41671899       5.22679246
Si      19.60580877      23.48087590      10.43679784
Si      19.61504012      26.41833849      13.05963307
Si      22.05263537      23.49568524      13.03140717
Si      22.03836020      26.43167094      10.42200017
Si      19.63214557      23.47304010      15.66473648
Si      19.58127005      26.41834863      18.29862584
Si      22.06457491      23.47985444      18.27250610
Si      22.04834760      26.42685304      15.66815593
Si      19.57799114      23.47055112      20.86907463
Si      19.62199335      26.39333089      23.50144524
Si      22.05985300      23.50084620      23.49446245
Si      22.06338784      26.42099734      20.90729102
